588
  DSViewer          3D                             0

 15 15  0  0  0  0  0  0  0  0999 V2000
    2.6218    0.0716    0.0015 O   0  0
   -0.7872    0.6308   -0.0016 N   0  0
    0.6221   -1.1243   -0.0002 N   0  0
   -1.7305   -1.5409    0.0006 N   0  0
    0.5104    1.2664   -0.0009 C   0  0
   -0.6318   -0.7331   -0.0007 C   0  0
    1.3984    0.0280   -0.0003 C   0  0
   -2.0031    1.4013    0.0017 C   0  0
    0.6787    1.8511    0.9067 H   0  0
    0.6798    1.8511   -0.9083 H   0  0
   -2.6053    1.1712   -0.8828 H   0  0
   -1.7932    2.4760   -0.0054 H   0  0
   -2.5943    1.1803    0.8958 H   0  0
   -2.6724   -1.1659    0.0015 H   0  0
   -1.6369   -2.5508    0.0021 H   0  0
  1  7  2  0  0  0
  2  5  1  0  0  0
  2  6  1  0  0  0
  2  8  1  0  0  0
  3  6  2  0  0  0
  3  7  1  0  0  0
  4  6  1  0  0  0
  4 14  1  0  0  0
  4 15  1  0  0  0
  5  7  1  0  0  0
  5  9  1  0  0  0
  5 10  1  0  0  0
  8 11  1  0  0  0
  8 12  1  0  0  0
  8 13  1  0  0  0
M  END
> <OBJECTID>
9223372036858118158

> <PUBCHEM_COMPOUND_CID>
588

> <PUBCHEM_CONFORMER_RMSD>
0.4

> <PUBCHEM_CONFORMER_DIVERSEORDER>
1

> <PUBCHEM_MMFF94_PARTIAL_CHARGES>
10
1 -0.57
14 0.4
15 0.4
2 -0.79
3 -0.66
4 -0.85
5 0.43
6 0.55
7 0.72
8 0.37

> <PUBCHEM_EFFECTIVE_ROTOR_COUNT>
0.4

> <PUBCHEM_PHARMACOPHORE_FEATURES>
4
1 1 acceptor
1 3 donor
1 4 donor
5 2 3 5 6 7 rings

> <PUBCHEM_HEAVY_ATOM_COUNT>
8

> <PUBCHEM_ATOM_DEF_STEREO_COUNT>
0

> <PUBCHEM_ATOM_UDEF_STEREO_COUNT>
0

> <PUBCHEM_BOND_DEF_STEREO_COUNT>
0

> <PUBCHEM_BOND_UDEF_STEREO_COUNT>
0

> <PUBCHEM_ISOTOPIC_ATOM_COUNT>
0

> <PUBCHEM_COMPONENT_COUNT>
1

> <PUBCHEM_CACTVS_TAUTO_COUNT>
3

> <PUBCHEM_CONFORMER_ID>
0000024C00000001

> <PUBCHEM_MMFF94_ENERGY>
21.0703

> <PUBCHEM_FEATURE_SELFOVERLAP>
20.331

> <PUBCHEM_SHAPE_FINGERPRINT>
16714656 1 18337395937367838164
20096714 4 18338517413368617104
21040471 1 18266740181874011844
23552423 10 18260554411567074382
29004967 10 17830455346741406355

> <PUBCHEM_SHAPE_MULTIPOLES>
143.82
2.66
1.59
0.57
0.65
0.16
0
-0.37
0
-0.81
0
-0.01
-0.02
0

> <PUBCHEM_SHAPE_SELFOVERLAP>
290.91

> <PUBCHEM_SHAPE_VOLUME>
87.1

> <PUBCHEM_COORDINATE_TYPE>
2
5
10

$$$$
2519
  DSViewer          3D                             0

 24 25  0  0  0  0  0  0  0  0999 V2000
   -0.7480   -3.4820    0.2530 H   0  0
   -2.4390   -2.9620    0.2970 H   0  0
   -1.4770   -2.7380   -1.2230 H   0  0
    3.3400   -1.5900   -0.0540 H   0  0
   -2.3320    2.1060    0.0820 C   0  0
    3.0010    1.1000   -0.1950 C   0  0
   -1.4390   -2.6870   -0.1100 C   0  0
    2.3170   -1.2010   -0.0020 C   0  0
   -1.8710   -0.3040    0.0220 C   0  0
    0.7600    0.1850    0.0380 C   0  0
    1.2620   -1.8870    0.1320 N   0  0
   -1.3750    0.9950    0.0860 N   0  0
    2.0120    0.0250   -0.0530 N   0  0
   -1.0230   -1.3490    0.3420 N   0  0
   -0.0210    1.2940    0.0410 C   0  0
    0.2880   -1.0710    0.1460 C   0  0
   -3.0250   -0.5060   -0.2740 O   0  0
    0.3960    2.4300   -0.0220 O   0  0
    4.0380    0.7010   -0.2790 H   0  0
    2.8060    1.6930   -1.1170 H   0  0
    2.9810    1.7710    0.6940 H   0  0
   -1.9580    2.9840    0.6550 H   0  0
   -3.2890    1.8350    0.5800 H   0  0
   -2.5460    2.4220   -0.9650 H   0  0
  1  7  1  0  0  0
  2  7  1  0  0  0
  3  7  1  0  0  0
  4  8  1  0  0  0
  5 12  1  0  0  0
  5 22  1  0  0  0
  5 23  1  0  0  0
  5 24  1  0  0  0
  6 13  1  0  0  0
  6 19  1  0  0  0
  6 20  1  0  0  0
  6 21  1  0  0  0
  7 14  1  0  0  0
  8 13  1  0  0  0
  8 11  2  0  0  0
  9 17  2  0  0  0
  9 14  1  0  0  0
  9 12  1  0  0  0
 10 13  1  0  0  0
 10 16  2  0  0  0
 10 15  1  0  0  0
 11 16  1  0  0  0
 12 15  1  0  0  0
 14 16  1  0  0  0
 15 18  2  0  0  0
M  END
> <OBJECTID>
9223372041153085454

$$$$
3033
  SciTegic09112316443D

 30 31  0  0  0  0            999 V2000
    1.9541    1.1500   -2.5078 Cl  0  0
    1.1377   -1.6392    2.1136 Cl  0  0
   -3.2620   -2.9284   -1.0647 O   0  0
   -2.7906   -1.9108    0.9092 O   0  0
    0.2679   -0.2051   -0.3990 N   0  0
   -2.0640    0.5139   -0.3769 C   0  0
   -0.7313    0.7178   -0.0192 C   0  0
   -2.4761   -0.6830   -1.1703 C   0  0
    1.6571   -0.2482   -0.1795 C   0  0
   -3.0382    1.4350    0.0081 C   0  0
   -0.3728    1.8429    0.7234 C   0  0
   -2.6797    2.5600    0.7506 C   0  0
   -1.3470    2.7640    1.1083 C   0  0
    2.5353    0.3477   -1.0918 C   0  0
    2.1740   -0.8865    0.9534 C   0  0
   -2.8480   -1.8749   -0.3123 C   0  0
    3.9124    0.3058   -0.8739 C   0  0
    3.5511   -0.9285    1.1713 C   0  0
    4.4203   -0.3324    0.2576 C   0  0
   -1.7086   -0.9792   -1.8930 H   0  0
   -3.3614   -0.4266   -1.7676 H   0  0
   -0.0861   -1.1146   -0.6780 H   0  0
   -4.0812    1.2885   -0.2604 H   0  0
    0.6569    2.0278    1.0167 H   0  0
   -3.4382    3.2769    1.0511 H   0  0
   -1.0683    3.6399    1.6868 H   0  0
    4.6037    0.7654   -1.5758 H   0  0
    3.9635   -1.4215    2.0480 H   0  0
    5.4925   -0.3651    0.4274 H   0  0
   -3.5025   -3.7011   -0.5102 H   0  0
  1 14  1  0
  2 15  1  0
  3 16  1  0
  3 30  1  0
  4 16  2  0
  5  7  1  0
  5  9  1  0
  5 22  1  0
  6  7  1  0
  6  8  1  0
  6 10  2  0
  7 11  2  0
  8 16  1  0
  8 20  1  0
  8 21  1  0
  9 14  2  0
  9 15  1  0
 10 12  1  0
 10 23  1  0
 11 13  1  0
 11 24  1  0
 12 13  2  0
 12 25  1  0
 13 26  1  0
 14 17  1  0
 15 18  2  0
 17 19  2  0
 17 27  1  0
 18 19  1  0
 18 28  1  0
 19 29  1  0
M  END
> <Name>
3033

> <OBJECTID>
9223372045448052750

> <PUBCHEM_COMPOUND_CID>
3033

> <PUBCHEM_CONFORMER_RMSD>
0.6

> <PUBCHEM_CONFORMER_DIVERSEORDER>
1
20
18
39
29
42
38
35
30
25
43
36
28
32
26
24
27
37
7
33
13
17
10
8
19
40
11
41
44
6
14
23
15
31
9
34
22
21
5
16
12
2
3
4

> <PUBCHEM_MMFF94_PARTIAL_CHARGES>
28
1 -0.18
10 -0.15
11 -0.15
12 -0.15
13 -0.15
14 0.18
15 0.18
16 0.66
17 -0.15
18 -0.15
19 -0.15
2 -0.18
22 0.4
23 0.15
24 0.15
25 0.15
26 0.15
27 0.15
28 0.15
29 0.15
3 -0.65
30 0.5
4 -0.57
5 -0.6
6 -0.14
7 0.1
8 0.2
9 0.1

> <PUBCHEM_EFFECTIVE_ROTOR_COUNT>
4

> <PUBCHEM_PHARMACOPHORE_FEATURES>
7
1 3 acceptor
1 4 acceptor
1 5 cation
1 5 donor
3 3 4 16 anion
6 6 7 10 11 12 13 rings
6 9 14 15 17 18 19 rings

> <PUBCHEM_HEAVY_ATOM_COUNT>
19

> <PUBCHEM_ATOM_DEF_STEREO_COUNT>
0

> <PUBCHEM_ATOM_UDEF_STEREO_COUNT>
0

> <PUBCHEM_BOND_DEF_STEREO_COUNT>
0

> <PUBCHEM_BOND_UDEF_STEREO_COUNT>
0

> <PUBCHEM_ISOTOPIC_ATOM_COUNT>
0

> <PUBCHEM_COMPONENT_COUNT>
1

> <PUBCHEM_CACTVS_TAUTO_COUNT>
1

> <PUBCHEM_CONFORMER_ID>
00000BD900000001

> <PUBCHEM_MMFF94_ENERGY>
65.6362

> <PUBCHEM_FEATURE_SELFOVERLAP>
35.578

> <PUBCHEM_SHAPE_FINGERPRINT>
10366900 7 17417797401529216848
114674 6 16891728701894680707
11578080 2 17899379143862767172
11582403 64 14494669035218381076
11640471 11 18117006493849514624
12236239 1 18261111820875384324
12363563 72 18057876030044738855
12553582 1 18198344146683738383
12596599 1 18187645743952899062
12788726 201 18411144640930400947
13032168 30 18187644747230063426
13140716 1 18201998871731372969
13538477 17 18337673022793085176
13583140 156 17273673422362519466
13764800 53 17917433060175811593
13965767 371 17255699494860869368
14115302 16 18335134267919818917
14787075 74 17904758126718027260
15279307 12 18190462662303703491
15375462 189 18262525908824534995
15669948 3 18340764849606273441
16752209 62 18340473509506590799
16945 1 18200600194014129929
19433438 48 18041271059455102488
200 152 18114177579116631646
20645476 183 18263084314824084125
20905425 154 17986106537902248752
21452121 199 18054216898186416085
21639500 275 16950855790154829052
22112679 90 18334869298344320804
23419403 2 17832944542404094220
23493267 7 18129946659028549016
23526113 38 16701741519202619718
23557571 272 17846787282197072988
23559900 14 17916308243344220974
23598288 3 18410017624115900295
23598291 2 18041844995629048350
238 59 16298948787494130118
4340502 62 17241909600819669849
6049 1 17275385408736404880
6992083 37 18042686087748961100
7615 1 18187651310045703636
77492 1 18260548883822617796
81228 2 17988365871383626009
9709674 26 17916588622471515406

> <PUBCHEM_SHAPE_MULTIPOLES>
378.03
7.01
2.75
1.77
3.48
0.4
0.34
1.22
0.47
-3.49
-0.51
0.79
-0.04
-2.24

> <PUBCHEM_SHAPE_SELFOVERLAP>
790.335

> <PUBCHEM_SHAPE_VOLUME>
214.7

> <PUBCHEM_COORDINATE_TYPE>
2
5
10

$$$$
4680
  SciTegic09112316443D

 46 48  0  0  0  0            999 V2000
   -4.5276    2.0829   -0.2217 O   0  0
   -5.8545   -0.3546   -0.1167 O   0  0
    4.8417    0.2406   -1.8690 O   0  0
    6.0567    0.2340    0.6304 O   0  0
    0.4372   -1.3593    0.3747 N   0  0
   -1.7011   -0.2237    0.1452 C   0  0
    0.4870    1.0271    0.1903 C   0  0
   -0.3079   -0.2394    0.2378 C   0  0
   -2.3709   -1.4636    0.1989 C   0  0
    1.9812    0.8142    0.3051 C   0  0
   -2.4389    0.9631    0.0033 C   0  0
   -3.7722   -1.4878    0.1088 C   0  0
   -3.8302    0.9206   -0.0845 C   0  0
   -1.6175   -2.6348    0.3404 C   0  0
   -4.4953   -0.3021   -0.0320 C   0  0
    2.7261    0.6242   -0.8456 C   0  0
    2.5689    0.8137    1.5579 C   0  0
   -0.2377   -2.5276    0.4224 C   0  0
    4.1030    0.4274   -0.7399 C   0  0
    4.7127    0.4239    0.5148 C   0  0
    3.9456    0.6170    1.6636 C   0  0
   -4.9423    2.7351    0.9769 C   0  0
   -6.4178   -0.4787   -1.4208 C   0  0
    4.1420    0.2582   -3.1118 C   0  0
    6.5117   -1.1104    0.7717 C   0  0
    0.1690    1.6929    1.0036 H   0  0
    0.2816    1.5589   -0.7482 H   0  0
   -1.9525    1.9342   -0.0424 H   0  0
   -4.3061   -2.4356    0.1492 H   0  0
   -2.0894   -3.6115    0.3862 H   0  0
    2.1948    0.6349   -1.7908 H   0  0
    1.9795    0.9614    2.4581 H   0  0
    0.3807   -3.4124    0.5325 H   0  0
    4.4139    0.6158    2.6442 H   0  0
   -5.6058    2.0874    1.5586 H   0  0
   -5.4902    3.6405    0.7022 H   0  0
   -4.0734    3.0206    1.5783 H   0  0
   -7.5066   -0.5005   -1.3230 H   0  0
   -6.0900   -1.4101   -1.8931 H   0  0
   -6.1397    0.3771   -2.0440 H   0  0
    3.6845    1.2347   -3.3040 H   0  0
    3.4196   -0.5623   -3.1800 H   0  0
    4.8834    0.0944   -3.9009 H   0  0
    6.2256   -1.7078   -0.0997 H   0  0
    6.1058   -1.5583    1.6842 H   0  0
    7.6026   -1.0972    0.8438 H   0  0
  1 13  1  0
  1 22  1  0
  2 15  1  0
  2 23  1  0
  3 19  1  0
  3 24  1  0
  4 20  1  0
  4 25  1  0
  5  8  2  0
  5 18  1  0
  6  8  1  0
  6  9  1  0
  6 11  2  0
  7  8  1  0
  7 10  1  0
  7 26  1  0
  7 27  1  0
  9 12  2  0
  9 14  1  0
 10 16  2  0
 10 17  1  0
 11 13  1  0
 11 28  1  0
 12 15  1  0
 12 29  1  0
 13 15  2  0
 14 18  2  0
 14 30  1  0
 16 19  1  0
 16 31  1  0
 17 21  2  0
 17 32  1  0
 18 33  1  0
 19 20  2  0
 20 21  1  0
 21 34  1  0
 22 35  1  0
 22 36  1  0
 22 37  1  0
 23 38  1  0
 23 39  1  0
 23 40  1  0
 24 41  1  0
 24 42  1  0
 24 43  1  0
 25 44  1  0
 25 45  1  0
 25 46  1  0
M  END
> <Name>
4680

> <OBJECTID>
9223372049743020046

> <PUBCHEM_COMPOUND_CID>
4680

> <PUBCHEM_CONFORMER_RMSD>
0.8

> <PUBCHEM_CONFORMER_DIVERSEORDER>
23
27
36
51
33
50
20
32
34
6
40
37
10
52
42
45
22
54
30
44
14
11
39
35
9
16
41
38
53
21
4
18
3
19
26
2
17
12
13
24
7
1
43
49
5
48
31
28
15
8
25
47
46
29

> <PUBCHEM_MMFF94_PARTIAL_CHARGES>
30
1 -0.36
10 -0.14
11 -0.15
12 -0.15
13 0.08
14 -0.15
15 0.08
16 -0.15
17 -0.15
18 0.16
19 0.08
2 -0.36
20 0.08
21 -0.15
22 0.28
23 0.28
24 0.28
25 0.28
28 0.15
29 0.15
3 -0.36
30 0.15
31 0.15
32 0.15
33 0.15
34 0.15
4 -0.36
5 -0.62
7 0.29
8 0.17

> <PUBCHEM_EFFECTIVE_ROTOR_COUNT>
6

> <PUBCHEM_PHARMACOPHORE_FEATURES>
8
1 1 acceptor
1 2 acceptor
1 3 acceptor
1 4 acceptor
1 5 acceptor
6 10 16 17 19 20 21 rings
6 5 6 8 9 14 18 rings
6 6 9 11 12 13 15 rings

> <PUBCHEM_HEAVY_ATOM_COUNT>
25

> <PUBCHEM_ATOM_DEF_STEREO_COUNT>
0

> <PUBCHEM_ATOM_UDEF_STEREO_COUNT>
0

> <PUBCHEM_BOND_DEF_STEREO_COUNT>
0

> <PUBCHEM_BOND_UDEF_STEREO_COUNT>
0

> <PUBCHEM_ISOTOPIC_ATOM_COUNT>
0

> <PUBCHEM_COMPONENT_COUNT>
1

> <PUBCHEM_CACTVS_TAUTO_COUNT>
1

> <PUBCHEM_CONFORMER_ID>
124800000017

> <PUBCHEM_MMFF94_ENERGY>
116.2191

> <PUBCHEM_FEATURE_SELFOVERLAP>
40.635

> <PUBCHEM_SHAPE_FINGERPRINT>
10670039 82 18334582312866592725
11315181 36 18259984906987144385
11796584 16 18412548704821904370
11991303 11 17531242920236309379
12236239 1 17386004013462993758
12390115 104 18271817766159639561
12596602 18 16443071642128742185
12616971 3 17240488004935142204
15021287 119 16950279594696392132
15042514 8 18192429904109053243
15131766 46 16010733855986968894
15183329 4 18186525393217279294
16752209 62 18336546126453921122
17844677 252 18342460373724922696
19489759 90 18343861126259002481
200 152 14908187447047461707
20645477 70 16702030772671091348
21033648 29 17561070419438014712
21267235 1 18335420197072852315
21279426 13 18200315390389882982
21285901 2 17703519822213743036
21315759 40 18040430001579078323
21781051 124 18115602568262920699
22122407 14 16153429433123666285
23366157 5 17824540769075291995
23402539 116 18343294873053912645
23559900 14 18199475531326854980
23569917 315 18260548922489049323
25147074 1 18265319639348872555
29717793 49 17749105595780927414
3004659 81 18187646891247009762
3298306 158 18201727236435339734
4098825 35 16128384736170687689
5104073 3 18264492793746108043
5265222 85 18268718389046801446
5385378 56 18267309738067507131
559249 180 18335133172872074058
59755656 215 18411413999250890703
7226269 152 18130786737557727944

> <PUBCHEM_SHAPE_MULTIPOLES>
486.03
15.27
2.16
1.59
1.95
0.41
1.28
-2.29
2.13
-2.93
-0.65
2.69
-0.27
-0.56

> <PUBCHEM_SHAPE_SELFOVERLAP>
1054.361

> <PUBCHEM_SHAPE_VOLUME>
267.7

> <PUBCHEM_COORDINATE_TYPE>
2
5
10

$$$$
5429
  SciTegic09112316443D

 21 22  0  0  0  0            999 V2000
    1.0169    2.5593    0.0007 O   0  0
   -3.2233    0.7239    0.0003 O   0  0
    2.0485   -0.2897   -0.0002 N   0  0
   -1.4263   -0.7738   -0.0001 N   0  0
   -1.0941    1.6022   -0.0002 N   0  0
    0.6813   -2.0534    0.0002 N   0  0
    0.7793    0.2110    0.0000 C   0  0
   -0.0389   -0.8897    0.0003 C   0  0
    0.3079    1.5577   -0.0005 C   0  0
   -2.0066    0.5172   -0.0004 C   0  0
    1.9378   -1.6570    0.0000 C   0  0
   -2.2674   -1.9623    0.0000 C   0  0
    3.2847    0.4546   -0.0001 C   0  0
    2.8008   -2.3089    0.0001 H   0  0
   -1.5100    2.5297    0.0001 H   0  0
   -2.0485   -2.5526    0.8950 H   0  0
   -2.0476   -2.5534   -0.8943 H   0  0
   -3.3287   -1.7011   -0.0007 H   0  0
    3.3153    1.0747   -0.8993 H   0  0
    3.3154    1.0741    0.8995 H   0  0
    4.1291   -0.2394   -0.0004 H   0  0
  1  9  2  0
  2 10  2  0
  3  7  1  0
  3 11  1  0
  3 13  1  0
  4  8  1  0
  4 10  1  0
  4 12  1  0
  5  9  1  0
  5 10  1  0
  5 15  1  0
  6  8  1  0
  6 11  2  0
  7  8  2  0
  7  9  1  0
 11 14  1  0
 12 16  1  0
 12 17  1  0
 12 18  1  0
 13 19  1  0
 13 20  1  0
 13 21  1  0
M  END
> <Name>
5429

> <OBJECTID>
9223372054037987342

> <PUBCHEM_COMPOUND_CID>
5429

> <PUBCHEM_CONFORMER_RMSD>
0.4

> <PUBCHEM_CONFORMER_DIVERSEORDER>
1

> <PUBCHEM_MMFF94_PARTIAL_CHARGES>
15
1 -0.57
10 0.69
11 0.04
12 0.3
13 0.26
14 0.15
15 0.37
2 -0.57
3 0.05
4 -0.42
5 -0.49
6 -0.57
7 -0.24
8 0.29
9 0.71

> <PUBCHEM_EFFECTIVE_ROTOR_COUNT>
0

> <PUBCHEM_PHARMACOPHORE_FEATURES>
6
1 1 acceptor
1 2 acceptor
1 5 donor
3 3 6 11 cation
5 3 6 7 8 11 rings
6 4 5 7 8 9 10 rings

> <PUBCHEM_HEAVY_ATOM_COUNT>
13

> <PUBCHEM_ATOM_DEF_STEREO_COUNT>
0

> <PUBCHEM_ATOM_UDEF_STEREO_COUNT>
0

> <PUBCHEM_BOND_DEF_STEREO_COUNT>
0

> <PUBCHEM_BOND_UDEF_STEREO_COUNT>
0

> <PUBCHEM_ISOTOPIC_ATOM_COUNT>
0

> <PUBCHEM_COMPONENT_COUNT>
1

> <PUBCHEM_CACTVS_TAUTO_COUNT>
3

> <PUBCHEM_CONFORMER_ID>
153500000001

> <PUBCHEM_MMFF94_ENERGY>
21.7734

> <PUBCHEM_FEATURE_SELFOVERLAP>
30.562

> <PUBCHEM_SHAPE_FINGERPRINT>
10967382 1 18410575050308634791
11132069 177 18410849967329317976
11206711 2 18336828713842816991
12382932 28 18411417284837198562
12423570 1 10933641856949270793
12524768 44 18198628735142129103
16945 1 18410855438732615493
193761 8 17978510063425417733
20588541 1 18410294670553846381
21040471 1 16609134911866691874
21501502 16 18265054819764530141
22802520 49 18057906653140570670
2334 1 18050287269250829261
23402655 69 18268977731851385845
23463225 33 18335134263809337906
23552423 10 18263644133418863773
23559900 14 18342748438378613308
241688 4 17906172854131781081
2748010 2 18194116554228058445
5084963 1 17986679383301531922
528886 8 18411414012151188178
53812653 166 18342452664448088544
63268167 104 18411139095663443561
66348 1 18411698755481894930

> <PUBCHEM_SHAPE_MULTIPOLES>
235.87
3.94
2.41
0.57
0.13
0.19
0
-0.13
0
0.01
0
-0.02
-0.02
0

> <PUBCHEM_SHAPE_SELFOVERLAP>
510.074

> <PUBCHEM_SHAPE_VOLUME>
130.9

> <PUBCHEM_COORDINATE_TYPE>
2
5
10

$$$$
6057
  SciTegic09112316443D

 24 24  0  0  1  0            999 V2000
   -1.7727   -1.6313   -0.9931 O   0  0
    4.2183   -0.6351   -0.3947 O   0  0
   -3.4801   -1.1584    0.4234 O   0  0
   -3.2387    1.4947   -0.2351 N   0  0
   -1.0493    1.0210    0.7633 C   0  0
   -2.0479    0.6553   -0.3458 C   0  0  1  0  0  0
    0.3618    0.5774    0.4529 C   0  0
    0.7803   -0.6798    0.8553 C   0  0
    1.2077    1.4373   -0.2276 C   0  0
   -2.5197   -0.7846   -0.2378 C   0  0
    2.0827   -1.0891    0.5690 C   0  0
    2.5101    1.0280   -0.5141 C   0  0
    2.9476   -0.2353   -0.1158 C   0  0
   -1.3631    0.5945    1.7261 H   0  0
   -1.0322    2.1089    0.9190 H   0  0
   -1.6246    0.8135   -1.3445 H   0  0
    0.1158   -1.3512    1.3914 H   0  0
    0.8752    2.4217   -0.5440 H   0  0
   -2.9777    2.4737   -0.3486 H   0  0
   -3.6297    1.4190    0.7038 H   0  0
    2.4114   -2.0754    0.8853 H   0  0
    3.1790    1.6973   -1.0482 H   0  0
   -2.0912   -2.5568   -0.9282 H   0  0
    4.3494   -1.5339   -0.0467 H   0  0
  1 10  1  0
  1 23  1  0
  2 13  1  0
  2 24  1  0
  3 10  2  0
  4  6  1  0
  4 19  1  0
  4 20  1  0
  5  6  1  0
  5  7  1  0
  5 14  1  0
  5 15  1  0
  6 10  1  0
  6 16  1  0
  7  8  2  0
  7  9  1  0
  8 11  1  0
  8 17  1  0
  9 12  2  0
  9 18  1  0
 11 13  2  0
 11 21  1  0
 12 13  1  0
 12 22  1  0
M  END
> <Name>
6057

> <OBJECTID>
9223372058332954638

> <PUBCHEM_COMPOUND_CID>
6057

> <PUBCHEM_CONFORMER_RMSD>
0.6

> <PUBCHEM_CONFORMER_DIVERSEORDER>
1
6
7
5
10
2
9
3
4
8

> <PUBCHEM_MMFF94_PARTIAL_CHARGES>
21
1 -0.65
10 0.66
11 -0.15
12 -0.15
13 0.08
17 0.15
18 0.15
19 0.36
2 -0.53
20 0.36
21 0.15
22 0.15
23 0.5
24 0.45
3 -0.57
4 -0.99
5 0.14
6 0.33
7 -0.14
8 -0.15
9 -0.15

> <PUBCHEM_EFFECTIVE_ROTOR_COUNT>
3

> <PUBCHEM_PHARMACOPHORE_FEATURES>
7
1 1 acceptor
1 2 donor
1 3 acceptor
1 4 cation
1 4 donor
3 1 3 10 anion
6 7 8 9 11 12 13 rings

> <PUBCHEM_HEAVY_ATOM_COUNT>
13

> <PUBCHEM_ATOM_DEF_STEREO_COUNT>
1

> <PUBCHEM_ATOM_UDEF_STEREO_COUNT>
0

> <PUBCHEM_BOND_DEF_STEREO_COUNT>
0

> <PUBCHEM_BOND_UDEF_STEREO_COUNT>
0

> <PUBCHEM_ISOTOPIC_ATOM_COUNT>
0

> <PUBCHEM_COMPONENT_COUNT>
1

> <PUBCHEM_CACTVS_TAUTO_COUNT>
2

> <PUBCHEM_CONFORMER_ID>
000017A900000001

> <PUBCHEM_MMFF94_ENERGY>
24.6717

> <PUBCHEM_FEATURE_SELFOVERLAP>
35.579

> <PUBCHEM_SHAPE_FINGERPRINT>
11401426 45 18260825969669806040
11769659 78 18341888602140244366
12897270 3 18113612430313781153
12932764 1 18129942394110394737
13296908 3 18273209815755699136
14128692 85 18413106186426960904
14325111 11 18335140912065485488
15775835 57 18114465560973810741
16945 1 18192425496627847928
17844478 74 18042131002144350971
18186145 218 17821725039901998140
19422 9 18339652238544457555
20279233 1 16988554689153481036
20645476 183 18335698308821443519
21119208 17 18408603630292033564
23402539 116 18187363195624195710
23402655 69 18040997289201717828
23552423 10 18334289902945012705
23559900 14 18059850633264985618
23598291 2 17897714375777863563
305870 269 9727642699922544684
3312278 4 18411419475307455705
465052 167 18126856117313195127
7364860 26 18128814329724976200
81228 2 16485866700213349416
93112 12 18335417954599056069
9939556 21 18408885126759599821

> <PUBCHEM_SHAPE_MULTIPOLES>
244.94
6.02
1.6
0.87
0.36
0.04
0.03
-1.03
-0.95
-0.57
-0.12
-0.03
-0.09
-0.3

> <PUBCHEM_SHAPE_SELFOVERLAP>
506.139

> <PUBCHEM_SHAPE_VOLUME>
140.1

> <PUBCHEM_COORDINATE_TYPE>
2
5
10

$$$$
6287
  SciTegic09112316443D

 19 18  0  0  1  0            999 V2000
   -1.5450   -1.4733   -0.2634 O   0  0
   -1.7308    0.3763    1.0301 O   0  0
   -0.2561    1.7673   -0.8569 N   0  0
    1.3804    0.0130   -0.2307 C   0  0
   -0.0464    0.3243   -0.7445 C   0  0  1  0  0  0
    1.7318   -1.4774   -0.1626 C   0  0
    1.6518    0.6838    1.1200 C   0  0
   -1.1858   -0.2139    0.1080 C   0  0
    2.0843    0.4571   -0.9495 H   0  0
   -0.1592   -0.0971   -1.7516 H   0  0
    1.5567   -1.9585   -1.1304 H   0  0
    1.1288   -1.9948    0.5905 H   0  0
    2.7866   -1.6168    0.0967 H   0  0
    0.9886    0.2970    1.9007 H   0  0
    2.6824    0.4931    1.4403 H   0  0
    1.5287    1.7701    1.0717 H   0  0
   -1.1415    1.9507   -1.3279 H   0  0
    0.4679    2.1741   -1.4481 H   0  0
   -2.2748   -1.8228    0.2912 H   0  0
  1  8  1  0
  1 19  1  0
  2  8  2  0
  3  5  1  0
  3 17  1  0
  3 18  1  0
  4  5  1  0
  4  6  1  0
  4  7  1  0
  4  9  1  0
  5  8  1  0
  5 10  1  0
  6 11  1  0
  6 12  1  0
  6 13  1  0
  7 14  1  0
  7 15  1  0
  7 16  1  0
M  END
> <Name>
6287

> <OBJECTID>
9223372062627921934

> <PUBCHEM_COMPOUND_CID>
6287

> <PUBCHEM_CONFORMER_RMSD>
0.4

> <PUBCHEM_CONFORMER_DIVERSEORDER>
2
6
8
5
3
7
1
4

> <PUBCHEM_MMFF94_PARTIAL_CHARGES>
8
1 -0.65
17 0.36
18 0.36
19 0.5
2 -0.57
3 -0.99
5 0.33
8 0.66

> <PUBCHEM_EFFECTIVE_ROTOR_COUNT>
2

> <PUBCHEM_PHARMACOPHORE_FEATURES>
6
1 1 acceptor
1 2 acceptor
1 3 cation
1 3 donor
3 1 2 8 anion
3 4 6 7 hydrophobe

> <PUBCHEM_HEAVY_ATOM_COUNT>
8

> <PUBCHEM_ATOM_DEF_STEREO_COUNT>
1

> <PUBCHEM_ATOM_UDEF_STEREO_COUNT>
0

> <PUBCHEM_BOND_DEF_STEREO_COUNT>
0

> <PUBCHEM_BOND_UDEF_STEREO_COUNT>
0

> <PUBCHEM_ISOTOPIC_ATOM_COUNT>
0

> <PUBCHEM_COMPONENT_COUNT>
1

> <PUBCHEM_CACTVS_TAUTO_COUNT>
1

> <PUBCHEM_CONFORMER_ID>
0000188F00000002

> <PUBCHEM_MMFF94_ENERGY>
7.1635

> <PUBCHEM_FEATURE_SELFOVERLAP>
30.506

> <PUBCHEM_SHAPE_FINGERPRINT>
18185500 45 18266184013763732287
20096714 4 16271926055779426056
21040471 1 18271542904714866697
23552449 11 17607231353730139803
24536 1 18188780585606761179
29004967 10 17822871847567128448

> <PUBCHEM_SHAPE_MULTIPOLES>
147.92
2.37
1.53
1.03
0.15
0.13
-0.13
0.55
-0.55
0.05
0.26
0
-0.33
0.23

> <PUBCHEM_SHAPE_SELFOVERLAP>
272.37

> <PUBCHEM_SHAPE_VOLUME>
94.4

> <PUBCHEM_COORDINATE_TYPE>
2
5
10

$$$$
6305
  SciTegic09112316443D

 27 28  0  0  1  0            999 V2000
    1.4762   -0.8154    1.7282 O   0  0
    2.5598   -1.9472    0.0879 O   0  0
   -1.6474    2.0044    0.5482 N   0  0
    3.8759    0.3655   -0.5832 N   0  0
    0.1475    1.1323   -0.4236 C   0  0
    1.5065    0.9845   -0.9830 C   0  0
   -0.8667    0.1349   -0.3859 C   0  0
    2.5601    0.4881    0.0402 C   0  0  1  0  0  0
   -1.9823    0.7078    0.2286 C   0  0
   -0.3625    2.2702    0.1579 C   0  0
   -0.9431   -1.2045   -0.8169 C   0  0
   -3.1751    0.0055    0.4346 C   0  0
    2.2083   -0.8852    0.5860 C   0  0
   -2.1298   -1.9193   -0.6176 C   0  0
   -3.2274   -1.3216   -0.0012 C   0  0
    1.4724    0.2941   -1.8370 H   0  0
    1.8346    1.9497   -1.3927 H   0  0
    2.6391    1.1902    0.8789 H   0  0
    0.0723    3.2449    0.3304 H   0  0
   -2.2620    2.6639    1.0051 H   0  0
   -0.1001   -1.6864   -1.3035 H   0  0
   -4.0301    0.4699    0.9143 H   0  0
   -2.1948   -2.9522   -0.9490 H   0  0
    4.5715    0.1348    0.1255 H   0  0
    4.1549    1.2657   -0.9717 H   0  0
   -4.1393   -1.8953    0.1434 H   0  0
    1.2617   -1.7057    2.0797 H   0  0
  1 13  1  0
  1 27  1  0
  2 13  2  0
  3  9  1  0
  3 10  1  0
  3 20  1  0
  4  8  1  0
  4 24  1  0
  4 25  1  0
  5  6  1  0
  5  7  1  0
  5 10  2  0
  6  8  1  0
  6 16  1  0
  6 17  1  0
  7  9  1  0
  7 11  2  0
  8 13  1  0
  8 18  1  0
  9 12  2  0
 10 19  1  0
 11 14  1  0
 11 21  1  0
 12 15  1  0
 12 22  1  0
 14 15  2  0
 14 23  1  0
 15 26  1  0
M  END
> <Name>
6305

> <OBJECTID>
9223372066922889230

> <PUBCHEM_COMPOUND_CID>
6305

> <PUBCHEM_CONFORMER_RMSD>
0.6

> <PUBCHEM_CONFORMER_DIVERSEORDER>
1
8
18
9
4
15
19
14
17
6
16
12
13
10
7
3
11
5
2

> <PUBCHEM_MMFF94_PARTIAL_CHARGES>
23
1 -0.65
10 -0.3
11 -0.15
12 -0.15
13 0.66
14 -0.15
15 -0.15
19 0.15
2 -0.57
20 0.27
21 0.15
22 0.15
23 0.15
24 0.36
25 0.36
26 0.15
27 0.5
3 0.03
4 -0.99
5 -0.18
6 0.18
8 0.33
9 -0.15

> <PUBCHEM_EFFECTIVE_ROTOR_COUNT>
3

> <PUBCHEM_PHARMACOPHORE_FEATURES>
9
1 1 acceptor
1 2 acceptor
1 3 cation
1 3 donor
1 4 cation
1 4 donor
3 1 2 13 anion
5 3 5 7 9 10 rings
6 7 9 11 12 14 15 rings

> <PUBCHEM_HEAVY_ATOM_COUNT>
15

> <PUBCHEM_ATOM_DEF_STEREO_COUNT>
1

> <PUBCHEM_ATOM_UDEF_STEREO_COUNT>
0

> <PUBCHEM_BOND_DEF_STEREO_COUNT>
0

> <PUBCHEM_BOND_UDEF_STEREO_COUNT>
0

> <PUBCHEM_ISOTOPIC_ATOM_COUNT>
0

> <PUBCHEM_COMPONENT_COUNT>
1

> <PUBCHEM_CACTVS_TAUTO_COUNT>
1

> <PUBCHEM_CONFORMER_ID>
000018A100000001

> <PUBCHEM_MMFF94_ENERGY>
20.3006

> <PUBCHEM_FEATURE_SELFOVERLAP>
45.819

> <PUBCHEM_SHAPE_FINGERPRINT>
11578080 2 18044063921631987172
12382932 28 18342172297346008739
12553582 1 18339637957620267583
13221675 6 18410296938460187006
13538477 17 18409445856177914860
15001771 113 18337390560110812629
15076042 46 18270116786388370305
15375462 189 18335425724268409835
16752209 62 18340195302926022533
16945 1 18341606031762393341
17804303 29 18056201271877253182
19422 9 18335426712311406226
20442098 301 18341891883389899966
20510252 161 17988370260576517201
20645477 70 17690549106974296535
20871998 184 18202566163648381989
22112679 90 18128831913457911133
22445834 79 18408325471008859442
23236772 104 18333455352113071832
232386 152 18269843171275638837
23388829 49 18338797917777723101
23463225 33 18410860962229259495
23552423 10 17905326578571904349
23559900 14 18272931614193070404
23598294 1 18270408191435270001
2748010 2 17186174063400709389
3312278 4 18335986462239826991
34934 24 18410289241900190429
427121 178 16123918433733439433
7364860 26 17840586221194573353

> <PUBCHEM_SHAPE_MULTIPOLES>
286.99
5.19
2.17
0.99
1.38
0.26
0.17
-1.69
0.1
-0.46
0.05
0.29
-0.14
-0.73

> <PUBCHEM_SHAPE_SELFOVERLAP>
619.038

> <PUBCHEM_SHAPE_VOLUME>
158.4

> <PUBCHEM_COORDINATE_TYPE>
2
5
10

$$$$
9259
  SciTegic09112316443D

 10 10  0  0  0  0            999 V2000
   -1.1929   -0.6793   -0.0001 N   0  0
   -1.1921    0.6807    0.0001 N   0  0
    1.2058   -0.6926    0.0000 C   0  0
    1.2066    0.6912    0.0000 C   0  0
   -0.0146   -1.3379    0.0000 C   0  0
   -0.0128    1.3380    0.0000 C   0  0
    2.1343   -1.2519    0.0001 H   0  0
    2.1359    1.2493   -0.0001 H   0  0
   -0.0822   -2.4195   -0.0001 H   0  0
   -0.0792    2.4196    0.0000 H   0  0
  1  2  1  0
  1  5  2  0
  2  6  2  0
  3  4  2  0
  3  5  1  0
  3  7  1  0
  4  6  1  0
  4  8  1  0
  5  9  1  0
  6 10  1  0
M  END
> <Name>
9259

> <OBJECTID>
9223372071217856526

> <PUBCHEM_COMPOUND_CID>
9259

> <PUBCHEM_CONFORMER_RMSD>
0.4

> <PUBCHEM_CONFORMER_DIVERSEORDER>
1

> <PUBCHEM_MMFF94_PARTIAL_CHARGES>
10
1 -0.31
10 0.15
2 -0.31
3 -0.15
4 -0.15
5 0.16
6 0.16
7 0.15
8 0.15
9 0.15

> <PUBCHEM_EFFECTIVE_ROTOR_COUNT>
0

> <PUBCHEM_PHARMACOPHORE_FEATURES>
3
1 1 acceptor
1 2 acceptor
6 1 2 3 4 5 6 rings

> <PUBCHEM_HEAVY_ATOM_COUNT>
6

> <PUBCHEM_ATOM_DEF_STEREO_COUNT>
0

> <PUBCHEM_ATOM_UDEF_STEREO_COUNT>
0

> <PUBCHEM_BOND_DEF_STEREO_COUNT>
0

> <PUBCHEM_BOND_UDEF_STEREO_COUNT>
0

> <PUBCHEM_ISOTOPIC_ATOM_COUNT>
0

> <PUBCHEM_COMPONENT_COUNT>
1

> <PUBCHEM_CACTVS_TAUTO_COUNT>
1

> <PUBCHEM_CONFORMER_ID>
0000242B00000001

> <PUBCHEM_MMFF94_ENERGY>
13.8566

> <PUBCHEM_FEATURE_SELFOVERLAP>
16.818

> <PUBCHEM_SHAPE_FINGERPRINT>
16714656 1 18338811060625373766
20096714 4 18410858737230419680
21015797 1 9295293836996102148
21040471 1 18410855498788317605

> <PUBCHEM_SHAPE_MULTIPOLES>
113.52
1.54
1.5
0.59
0
0
0
0.01
0
0
0
0
-0.04
0

> <PUBCHEM_SHAPE_SELFOVERLAP>
229.057

> <PUBCHEM_SHAPE_VOLUME>
65.7

> <PUBCHEM_COORDINATE_TYPE>
2
5
10

$$$$
10189
  SciTegic09112316443D

 25 26  0  0  0  0            999 V2000
    1.0033    1.6849    0.0006 O   0  0
   -3.5888    0.4776   -0.0005 O   0  0
   -0.3290   -2.9764    0.0002 O   0  0
    2.2049   -2.2085   -0.0014 O   0  0
    0.3964   -0.6678    0.0006 C   0  0
    0.0626    0.6859    0.0007 C   0  0
   -0.6041   -1.6424    0.0004 C   0  0
   -1.2777    1.0731    0.0005 C   0  0
    1.8175   -1.0483    0.0002 C   0  0
   -2.2801    0.1025    0.0002 C   0  0
    2.3424    1.3287   -0.0001 C   0  0
   -1.9439   -1.2521    0.0001 C   0  0
    2.7875    0.0636   -0.0002 C   0  0
    3.2717    2.5013   -0.0004 C   0  0
   -3.8627    1.8777   -0.0009 C   0  0
   -1.4776    2.1395    0.0005 H   0  0
   -2.7296   -2.0039   -0.0003 H   0  0
    3.8433   -0.1813   -0.0008 H   0  0
    3.1010    3.1186    0.8875 H   0  0
    3.1003    3.1185   -0.8883 H   0  0
    4.3233    2.1962   -0.0008 H   0  0
    0.6292   -3.1247    0.0012 H   0  0
   -3.4910    2.3611    0.9089 H   0  0
   -4.9515    1.9938   -0.0015 H   0  0
   -3.4900    2.3608   -0.9105 H   0  0
  1  6  1  0
  1 11  1  0
  2 10  1  0
  2 15  1  0
  3  7  1  0
  3 22  1  0
  4  9  2  0
  5  6  1  0
  5  7  2  0
  5  9  1  0
  6  8  2  0
  7 12  1  0
  8 10  1  0
  8 16  1  0
  9 13  1  0
 10 12  2  0
 11 13  2  0
 11 14  1  0
 12 17  1  0
 13 18  1  0
 14 19  1  0
 14 20  1  0
 14 21  1  0
 15 23  1  0
 15 24  1  0
 15 25  1  0
M  END
> <Name>
10189

> <OBJECTID>
9223372075512823822

> <PUBCHEM_COMPOUND_CID>
10189

> <PUBCHEM_CONFORMER_RMSD>
0.4

> <PUBCHEM_CONFORMER_DIVERSEORDER>
1
2

> <PUBCHEM_MMFF94_PARTIAL_CHARGES>
19
1 -0.16
10 0.08
11 -0.06
12 -0.15
13 -0.14
14 0.14
15 0.28
16 0.15
17 0.15
18 0.15
2 -0.36
22 0.45
3 -0.53
4 -0.57
5 0.09
6 0.08
7 0.08
8 -0.15
9 0.47

> <PUBCHEM_EFFECTIVE_ROTOR_COUNT>
1

> <PUBCHEM_PHARMACOPHORE_FEATURES>
6
1 1 acceptor
1 2 acceptor
1 3 donor
1 4 acceptor
6 1 5 6 9 11 13 rings
6 5 6 7 8 10 12 rings

> <PUBCHEM_HEAVY_ATOM_COUNT>
15

> <PUBCHEM_ATOM_DEF_STEREO_COUNT>
0

> <PUBCHEM_ATOM_UDEF_STEREO_COUNT>
0

> <PUBCHEM_BOND_DEF_STEREO_COUNT>
0

> <PUBCHEM_BOND_UDEF_STEREO_COUNT>
0

> <PUBCHEM_ISOTOPIC_ATOM_COUNT>
0

> <PUBCHEM_COMPONENT_COUNT>
1

> <PUBCHEM_CACTVS_TAUTO_COUNT>
14

> <PUBCHEM_CONFORMER_ID>
000027CD00000001

> <PUBCHEM_MMFF94_ENERGY>
48.386

> <PUBCHEM_FEATURE_SELFOVERLAP>
30.474

> <PUBCHEM_SHAPE_FINGERPRINT>
10411042 1 17185877195398853319
10608611 8 18409729577586220429
10967382 1 18410573937922706597
10980938 120 18410012139031213121
11471102 20 18265891350729408037
11680986 33 18409174311334488650
13140716 1 18408887308829683883
13380535 21 18337400434055970820
13380535 76 18339075003329486022
13380536 305 18339084778638128518
13897977 150 18409727352871957669
14251717 144 18339353064134127245
14325111 11 18410855473345665377
14648413 74 18409452466174677618
14897335 6 18339919410921545261
15442244 35 18196372507243541921
15536298 74 18343582928099563492
15775835 57 18409171038411114444
16945 1 18122626316653240963
18186145 218 18271250421811050317
193761 8 18338799030164008326
20510252 161 18054797448731122433
20645477 70 18338793395725591775
21501502 16 18338790221127782670
2334 1 18410855503315315531
23463225 33 18264487282580347419
23559900 14 18200039568572004412
25 1 18336264518670593877
2748010 2 18409174324214005271
3071541 12 18339928103929882708
528886 8 18411132515615193059
53812653 166 18342173405632414992
63268167 104 18341336617101153953
7364860 26 18341895160850678502
84936 182 18202276979142734321

> <PUBCHEM_SHAPE_MULTIPOLES>
285.22
5.41
2.82
0.59
1.9
0.77
0
-3.71
0
-0.73
0
-0.01
-0.02
0

> <PUBCHEM_SHAPE_SELFOVERLAP>
619.989

> <PUBCHEM_SHAPE_VOLUME>
156

> <PUBCHEM_COORDINATE_TYPE>
2
5
10

$$$$
12038
  SciTegic09112316443D

 26 26  0  0  0  0            999 V2000
   -2.7046    0.2012    0.0579 O   0  0
    3.1167   -1.0882   -0.3545 O   0  0
    3.3573    1.6656   -0.0689 O   0  0
   -1.9146   -1.9439   -0.2130 O   0  0
   -0.3955   -0.1106   -0.0869 C   0  0
    2.0089   -0.3072   -0.2193 C   0  0
    0.7462   -0.9001   -0.2250 C   0  0
   -0.2745    1.2716    0.0569 C   0  0
    2.1297    1.0750   -0.0755 C   0  0
    0.9881    1.8644    0.0626 C   0  0
   -1.7120   -0.7286   -0.0912 C   0  0
   -4.0508   -0.2861    0.0706 C   0  0
   -4.9968    0.8831    0.2434 C   0  0
    3.7020   -1.5962    0.8429 C   0  0
    0.6667   -1.9787   -0.3384 H   0  0
   -1.1350    1.9255    0.1675 H   0  0
    1.0685    2.9423    0.1754 H   0  0
   -4.2611   -0.7978   -0.8749 H   0  0
   -4.1747   -0.9903    0.9007 H   0  0
   -6.0370    0.5460    0.2575 H   0  0
   -4.7847    1.4156    1.1764 H   0  0
   -4.8696    1.6049   -0.5701 H   0  0
    2.9929   -2.2398    1.3729 H   0  0
    4.0240   -0.7764    1.4928 H   0  0
    4.5780   -2.1910    0.5704 H   0  0
    3.2463    2.6256    0.0409 H   0  0
  1 11  1  0
  1 12  1  0
  2  6  1  0
  2 14  1  0
  3  9  1  0
  3 26  1  0
  4 11  2  0
  5  7  2  0
  5  8  1  0
  5 11  1  0
  6  7  1  0
  6  9  2  0
  7 15  1  0
  8 10  2  0
  8 16  1  0
  9 10  1  0
 10 17  1  0
 12 13  1  0
 12 18  1  0
 12 19  1  0
 13 20  1  0
 13 21  1  0
 13 22  1  0
 14 23  1  0
 14 24  1  0
 14 25  1  0
M  END
> <Name>
12038

> <OBJECTID>
9223372079807791118

> <PUBCHEM_COMPOUND_CID>
12038

> <PUBCHEM_CONFORMER_RMSD>
0.6

> <PUBCHEM_CONFORMER_DIVERSEORDER>
1
17
18
8
9
24
10
23
25
13
6
20
12
22
2
16
15
11
21
3
7
5
14
4
19

> <PUBCHEM_MMFF94_PARTIAL_CHARGES>
17
1 -0.43
10 -0.15
11 0.63
12 0.28
14 0.28
15 0.15
16 0.15
17 0.15
2 -0.36
26 0.45
3 -0.53
4 -0.57
5 0.09
6 0.08
7 -0.15
8 -0.15
9 0.08

> <PUBCHEM_EFFECTIVE_ROTOR_COUNT>
4

> <PUBCHEM_PHARMACOPHORE_FEATURES>
4
1 2 acceptor
1 3 donor
1 4 acceptor
6 5 6 7 8 9 10 rings

> <PUBCHEM_HEAVY_ATOM_COUNT>
14

> <PUBCHEM_ATOM_DEF_STEREO_COUNT>
0

> <PUBCHEM_ATOM_UDEF_STEREO_COUNT>
0

> <PUBCHEM_BOND_DEF_STEREO_COUNT>
0

> <PUBCHEM_BOND_UDEF_STEREO_COUNT>
0

> <PUBCHEM_ISOTOPIC_ATOM_COUNT>
0

> <PUBCHEM_COMPONENT_COUNT>
1

> <PUBCHEM_CACTVS_TAUTO_COUNT>
4

> <PUBCHEM_CONFORMER_ID>
00002F0600000001

> <PUBCHEM_MMFF94_ENERGY>
43.9192

> <PUBCHEM_FEATURE_SELFOVERLAP>
20.297

> <PUBCHEM_SHAPE_FINGERPRINT>
10130415 120 18411698772677666482
10608611 8 18339923843829039065
11471102 20 18411134740698545629
12251169 10 18341327825424574050
13922767 16 18343018870144839153
14115302 16 17604163552990736398
14144814 61 18342182184745781097
14178342 30 17979619449325510386
14325111 11 18411983602556539669
14897335 6 18342175622051538037
15196674 1 18411419523100676429
15375462 189 18040989592868379890
15442244 35 18411982442588491049
16945 1 18268716021765388806
18186145 218 17822286894659929367
18511873 20 18411699876843055011
20645477 70 18411700980412520311
20871998 22 18198909102439355086
212847 35 18272090483302440073
21501502 16 18339919445471265839
21501925 9 18412256212594137986
23402539 116 18131059395351253005
23402655 69 18273212002543022893
23463225 33 18411136935326496566
23552423 10 18191308375866208516
23559900 14 18202285810069520436
2748010 2 18339646757981753582
34934 24 18341609373558127508
5104073 3 18411703209959204187
53812653 166 18200028594065139968
69090 78 18341890810096442959
7364860 26 18343021121034853704

> <PUBCHEM_SHAPE_MULTIPOLES>
264.64
7.68
1.88
0.67
6.68
0.18
-0.05
-0.37
-1.04
-1.18
-0.07
-0.18
-0.08
-0.43

> <PUBCHEM_SHAPE_SELFOVERLAP>
545.104

> <PUBCHEM_SHAPE_VOLUME>
153.2

> <PUBCHEM_COORDINATE_TYPE>
2
5
10

$$$$
13250
  SciTegic09112316443D

 24 24  0  0  0  0            999 V2000
   -2.5118    0.2584   -0.0001 O   0  0
    3.0427   -1.9470    0.0033 O   0  0
    1.7068    2.6524   -0.0013 O   0  0
    3.7113    0.7412    0.0017 O   0  0
   -2.0610   -1.9990   -0.0019 O   0  0
   -0.2770   -0.4171   -0.0024 C   0  0
    0.0560    0.9374   -0.0023 C   0  0
    0.7296   -1.3828   -0.0009 C   0  0
    2.0691   -0.9939    0.0007 C   0  0
    1.3956    1.3262   -0.0008 C   0  0
    2.4021    0.3605    0.0007 C   0  0
   -1.6734   -0.8229   -0.0019 C   0  0
   -3.9175   -0.0127    0.0018 C   0  0
   -4.6727    1.2993    0.0035 C   0  0
   -0.7049    1.7135   -0.0032 H   0  0
    0.4851   -2.4424   -0.0003 H   0  0
   -4.1776   -0.5901   -0.8921 H   0  0
   -4.1749   -0.5908    0.8960 H   0  0
   -5.7529    1.1289    0.0050 H   0  0
   -4.4072    1.8955    0.8828 H   0  0
   -4.4099    1.8961   -0.8762 H   0  0
    3.9074   -1.5008    0.0045 H   0  0
    0.8855    3.1731   -0.0026 H   0  0
    3.7485    1.7135    0.0014 H   0  0
  1 12  1  0
  1 13  1  0
  2  9  1  0
  2 22  1  0
  3 10  1  0
  3 23  1  0
  4 11  1  0
  4 24  1  0
  5 12  2  0
  6  7  2  0
  6  8  1  0
  6 12  1  0
  7 10  1  0
  7 15  1  0
  8  9  2  0
  8 16  1  0
  9 11  1  0
 10 11  2  0
 13 14  1  0
 13 17  1  0
 13 18  1  0
 14 19  1  0
 14 20  1  0
 14 21  1  0
M  END
> <Name>
13250

> <OBJECTID>
9223372084102758414

> <PUBCHEM_COMPOUND_CID>
13250

> <PUBCHEM_CONFORMER_RMSD>
0.6

> <PUBCHEM_CONFORMER_DIVERSEORDER>
1
4
2
3
5
6
7

> <PUBCHEM_MMFF94_PARTIAL_CHARGES>
18
1 -0.43
10 0.08
11 0.08
12 0.63
13 0.28
15 0.15
16 0.15
2 -0.53
22 0.45
23 0.45
24 0.45
3 -0.53
4 -0.53
5 -0.57
6 0.09
7 -0.15
8 -0.15
9 0.08

> <PUBCHEM_EFFECTIVE_ROTOR_COUNT>
3

> <PUBCHEM_PHARMACOPHORE_FEATURES>
5
1 2 donor
1 3 donor
1 4 donor
1 5 acceptor
6 6 7 8 9 10 11 rings

> <PUBCHEM_HEAVY_ATOM_COUNT>
14

> <PUBCHEM_ATOM_DEF_STEREO_COUNT>
0

> <PUBCHEM_ATOM_UDEF_STEREO_COUNT>
0

> <PUBCHEM_BOND_DEF_STEREO_COUNT>
0

> <PUBCHEM_BOND_UDEF_STEREO_COUNT>
0

> <PUBCHEM_ISOTOPIC_ATOM_COUNT>
0

> <PUBCHEM_COMPONENT_COUNT>
1

> <PUBCHEM_CACTVS_TAUTO_COUNT>
14

> <PUBCHEM_CONFORMER_ID>
000033C200000001

> <PUBCHEM_MMFF94_ENERGY>
31.9185

> <PUBCHEM_FEATURE_SELFOVERLAP>
25.381

> <PUBCHEM_SHAPE_FINGERPRINT>
10130415 120 18335135341424279082
10608611 8 18337389448015125721
10967382 1 18410575067514864740
10980938 120 18409167692710549699
11471102 20 18410289181859968317
116883 192 17984428438333823892
12932764 1 17416406678455468155
13380535 21 18335710497869830311
13380535 76 18411418431941885775
13571099 22 18271810103014635054
13922767 16 18411134702122902673
14144814 61 18412266116730693795
14325111 11 18266458900281540837
14648413 74 18336549429325618889
14897335 6 18412822516917114751
15442244 35 18340206276250881121
15775835 57 18408326613554549767
16945 1 18338797917978001030
18186145 218 18341897347052329253
20606313 2 18411136913635349773
20645477 70 18341049614686636919
20871998 22 18126567808637107246
21501502 16 18337667645705046743
23402539 116 18128805361827662623
23402655 69 18343295943070384389
25 1 18334856129794905062
2748010 2 17761216913839594300
5104073 3 18410012130937080139
528886 8 18411695517182172378
53812653 166 18341327890002005952
63268167 104 18411143540833145800
7364860 26 18342458170785968360
74978 22 18411984684656391011
7832392 63 18341047501393395805

> <PUBCHEM_SHAPE_MULTIPOLES>
258.77
6.83
2.11
0.58
6.36
0.34
0
1.39
-0.01
-0.92
0
0.03
0
0

> <PUBCHEM_SHAPE_SELFOVERLAP>
541.051

> <PUBCHEM_SHAPE_VOLUME>
147.5

> <PUBCHEM_COORDINATE_TYPE>
2
5
10

$$$$
19845
  SciTegic09112316443D

 30 30  0  0  0  0            999 V2000
    2.8875    1.7248    0.5703 O   0  0
    1.2399   -2.7107   -0.1681 O   0  0
   -2.7850    0.1234    0.1688 O   0  0
    3.3528   -0.9960    0.3444 O   0  0
   -2.1112    2.1576   -0.6719 O   0  0
   -0.4957    0.5053   -0.0846 C   0  0
    1.8590    0.8682    0.3169 C   0  0
    1.0274   -1.3696   -0.0548 C   0  0
   -0.2652   -0.8656   -0.1986 C   0  0
    0.5663    1.3722    0.1731 C   0  0
    2.0895   -0.5029    0.2029 C   0  0
   -1.8437    1.0309   -0.2342 C   0  0
   -4.1555    0.5250    0.0682 C   0  0
   -5.0373   -0.6042    0.5570 C   0  0
    3.5705    2.2688   -0.5573 C   0  0
    0.1007   -3.5271   -0.4321 C   0  0
   -1.1150   -1.5024   -0.4171 H   0  0
    0.3958    2.4422    0.2677 H   0  0
   -4.3189    1.4170    0.6828 H   0  0
   -4.3910    0.7550   -0.9767 H   0  0
   -6.0942   -0.3309    0.4934 H   0  0
   -4.8693   -1.5087   -0.0369 H   0  0
   -4.7990   -0.8572    1.5954 H   0  0
    3.3193   -1.9621    0.2332 H   0  0
    2.8847    2.8605   -1.1718 H   0  0
    4.0205    1.4716   -1.1574 H   0  0
    4.3667    2.9235   -0.1925 H   0  0
   -0.3464   -3.2950   -1.4048 H   0  0
   -0.6272   -3.4831    0.3853 H   0  0
    0.4532   -4.5626   -0.4856 H   0  0
  1  7  1  0
  1 15  1  0
  2  8  1  0
  2 16  1  0
  3 12  1  0
  3 13  1  0
  4 11  1  0
  4 24  1  0
  5 12  2  0
  6  9  2  0
  6 10  1  0
  6 12  1  0
  7 10  2  0
  7 11  1  0
  8  9  1  0
  8 11  2  0
  9 17  1  0
 10 18  1  0
 13 14  1  0
 13 19  1  0
 13 20  1  0
 14 21  1  0
 14 22  1  0
 14 23  1  0
 15 25  1  0
 15 26  1  0
 15 27  1  0
 16 28  1  0
 16 29  1  0
 16 30  1  0
M  END
> <Name>
19845

> <OBJECTID>
9223372088397725710

> <PUBCHEM_COMPOUND_CID>
19845

> <PUBCHEM_CONFORMER_RMSD>
0.6

> <PUBCHEM_CONFORMER_DIVERSEORDER>
4
3
8
22
18
16
15
13
23
12
24
21
11
9
14
20
7
2
10
6
19
5
1
17

> <PUBCHEM_MMFF94_PARTIAL_CHARGES>
18
1 -0.36
10 -0.15
11 0.08
12 0.63
13 0.28
15 0.28
16 0.28
17 0.15
18 0.15
2 -0.36
24 0.45
3 -0.43
4 -0.53
5 -0.57
6 0.09
7 0.08
8 0.08
9 -0.15

> <PUBCHEM_EFFECTIVE_ROTOR_COUNT>
5

> <PUBCHEM_PHARMACOPHORE_FEATURES>
5
1 1 acceptor
1 2 acceptor
1 4 donor
1 5 acceptor
6 6 7 8 9 10 11 rings

> <PUBCHEM_HEAVY_ATOM_COUNT>
16

> <PUBCHEM_ATOM_DEF_STEREO_COUNT>
0

> <PUBCHEM_ATOM_UDEF_STEREO_COUNT>
0

> <PUBCHEM_BOND_DEF_STEREO_COUNT>
0

> <PUBCHEM_BOND_UDEF_STEREO_COUNT>
0

> <PUBCHEM_ISOTOPIC_ATOM_COUNT>
0

> <PUBCHEM_COMPONENT_COUNT>
1

> <PUBCHEM_CACTVS_TAUTO_COUNT>
3

> <PUBCHEM_CONFORMER_ID>
00004D8500000004

> <PUBCHEM_MMFF94_ENERGY>
59.0882

> <PUBCHEM_FEATURE_SELFOVERLAP>
25.373

> <PUBCHEM_SHAPE_FINGERPRINT>
10493431 412 18196370544380469960
10608611 8 18263075522889035141
10967382 1 18411416232548988290
12553582 1 17115793215789290975
13140716 1 18339915013107357458
13380536 305 18412267216442833526
13583140 156 16879318230519691064
14178342 30 17981599373330034736
14251717 144 18413105048492859375
14648413 74 18120930599293556849
14790565 3 18048889785914933293
15219456 202 18335133159976674365
15309172 13 18339926016787072401
15375462 6 18409446951732347965
16945 1 18196086647252700612
17990270 104 18122058702444561515
193761 8 18195239143200509890
19591789 44 18411984667387026598
20645477 70 18336818702917498007
21501502 16 18267856362686692502
21524375 3 18334293210365470160
221490 88 18337395916030301091
22620623 9 17554627457793482326
2334 1 18339634667791058038
23530152 11 18340769337857900750
23557571 272 17241046492739225445
23559900 14 18193267486638518635
2748010 2 18410011065647857868
33824 294 18410011035820872979
458136 41 18340782488978870987
474229 33 18336827623263891315
4990 188 17774736332389214604
5104073 3 18408604743300760097
5902787 121 17685489854025826411
6438718 38 17629762537533357231
7364860 26 18268710519669702470
81228 2 17619328249331052362
81539 233 18335417976121053509
8272917 22 18270124513577757333
9709674 26 18264490586069788859

> <PUBCHEM_SHAPE_MULTIPOLES>
299.93
6.91
3.09
0.71
7.13
2.58
-0.01
-2.67
0.91
-1.74
-0.62
-0.01
-0.07
0.1

> <PUBCHEM_SHAPE_SELFOVERLAP>
617.92

> <PUBCHEM_SHAPE_VOLUME>
174.7

> <PUBCHEM_COORDINATE_TYPE>
2
5
10

$$$$
20525
  SciTegic09112316443D

 26 26  0  0  0  0            999 V2000
    2.4764   -1.0442    0.1769 O   0  0
    2.1616    1.7119    0.3509 O   0  0
   -2.2410   -1.5688   -0.1645 O   0  0
   -2.8280    2.4571    0.0823 O   0  0
    1.2347   -0.4852    0.1364 C   0  0
    1.0767    0.8979    0.2237 C   0  0
   -1.3187    0.6352    0.0516 C   0  0
   -1.1607   -0.7480   -0.0357 C   0  0
    0.1161   -1.3081    0.0068 C   0  0
   -0.2000    1.4581    0.1814 C   0  0
   -2.6428    1.2402    0.0086 C   0  0
    2.5508   -2.4654    0.0817 C   0  0
    2.7592    2.1883   -0.8533 C   0  0
   -1.9843   -2.9690   -0.2466 C   0  0
    0.2407   -2.3776   -0.0608 H   0  0
   -0.3044    2.5383    0.2516 H   0  0
   -3.5058    0.5620   -0.0947 H   0  0
    2.1808   -2.8275   -0.8838 H   0  0
    2.0641   -2.9554    0.9320 H   0  0
    3.6115   -2.7335    0.1310 H   0  0
    2.0454    2.7922   -1.4226 H   0  0
    3.1156    1.3525   -1.4638 H   0  0
    3.6139    2.8159   -0.5867 H   0  0
   -2.9554   -3.4659   -0.3446 H   0  0
   -1.5285   -3.3536    0.6724 H   0  0
   -1.4107   -3.2255   -1.1440 H   0  0
  1  5  1  0
  1 12  1  0
  2  6  1  0
  2 13  1  0
  3  8  1  0
  3 14  1  0
  4 11  2  0
  5  6  2  0
  5  9  1  0
  6 10  1  0
  7  8  1  0
  7 10  2  0
  7 11  1  0
  8  9  2  0
  9 15  1  0
 10 16  1  0
 11 17  1  0
 12 18  1  0
 12 19  1  0
 12 20  1  0
 13 21  1  0
 13 22  1  0
 13 23  1  0
 14 24  1  0
 14 25  1  0
 14 26  1  0
M  END
> <Name>
20525

> <OBJECTID>
9223372092692693006

> <PUBCHEM_COMPOUND_CID>
20525

> <PUBCHEM_CONFORMER_RMSD>
0.6

> <PUBCHEM_CONFORMER_DIVERSEORDER>
9
8
7
4
6
1
3
10
2
5

> <PUBCHEM_MMFF94_PARTIAL_CHARGES>
17
1 -0.36
10 -0.15
11 0.42
12 0.28
13 0.28
14 0.28
15 0.15
16 0.15
17 0.06
2 -0.36
3 -0.36
4 -0.57
5 0.08
6 0.08
7 0.09
8 0.08
9 -0.15

> <PUBCHEM_EFFECTIVE_ROTOR_COUNT>
4

> <PUBCHEM_PHARMACOPHORE_FEATURES>
5
1 1 acceptor
1 2 acceptor
1 3 acceptor
1 4 acceptor
6 5 6 7 8 9 10 rings

> <PUBCHEM_HEAVY_ATOM_COUNT>
14

> <PUBCHEM_ATOM_DEF_STEREO_COUNT>
0

> <PUBCHEM_ATOM_UDEF_STEREO_COUNT>
0

> <PUBCHEM_BOND_DEF_STEREO_COUNT>
0

> <PUBCHEM_BOND_UDEF_STEREO_COUNT>
0

> <PUBCHEM_ISOTOPIC_ATOM_COUNT>
0

> <PUBCHEM_COMPONENT_COUNT>
1

> <PUBCHEM_CACTVS_TAUTO_COUNT>
1

> <PUBCHEM_CONFORMER_ID>
0000502D00000009

> <PUBCHEM_MMFF94_ENERGY>
66.2258

> <PUBCHEM_FEATURE_SELFOVERLAP>
25.378

> <PUBCHEM_SHAPE_FINGERPRINT>
10756046 5 18410857663520283638
10967382 1 17762898771023991691
11206711 2 18123188167248294981
11680986 33 18341044130071032362
12423570 1 16032111162222730680
13380535 21 18339371841309359953
14614273 12 18117263959895627053
14648413 74 18409169878959588898
14993402 34 18050567343909634124
15219459 52 18338798888329548996
16945 1 18410853273989821210
193761 8 18411135857068250099
20510252 161 17910678988006660304
20511035 2 18129929118487659182
20645476 183 17972062273895637254
20671657 1 18336836294708338716
20711985 365 18411414012362541887
21029758 27 17901965044960409916
21501502 16 18410572911409640135
2334 1 18339078293116042851
23402539 116 17622159487741534492
23419403 2 14000074100477218882
23552423 10 18335700563541928826
23558518 356 18334289890033997115
23559900 14 18127128577332944982
2748010 2 18411417323475969295
3060560 45 17905874895529582917
3071541 158 18046068159841395236
43471831 8 18192425501455669234
53812653 11 18122623851378865085
53812653 8 17976258255412486816
57177213 63 18190746538377953564
589210 1 18410572907167621750
68250623 7 18410295830237415714
7364860 26 18413670201848730712
74978 22 18410855417241870406

> <PUBCHEM_SHAPE_MULTIPOLES>
264.64
4.32
3.39
0.67
0.37
1
0.05
-0.67
0.38
-0.36
0.25
0.16
-0.09
-0.57

> <PUBCHEM_SHAPE_SELFOVERLAP>
547.66

> <PUBCHEM_SHAPE_VOLUME>
152.6

> <PUBCHEM_COORDINATE_TYPE>
2
5
10

$$$$
24083
  SciTegic09112316442D

  6  4  0  0  0  0            999 V2000
    3.0000    0.0000    0.0000 S   0  0
    2.0000   -1.0000    0.0000 Mg  0  2
    2.0000    0.0000    0.0000 O   0  5
    3.0000   -1.0000    0.0000 O   0  5
    4.0000    0.0000    0.0000 O   0  0
    3.0000    1.0000    0.0000 O   0  0
  1  3  1  0
  1  4  1  0
  1  5  2  0
  1  6  2  0
M  CHG  3   2   2   3  -1   4  -1
M  END
> <Name>
24083

> <OBJECTID>
9223372096987660302

> <PUBCHEM_COMPOUND_CID>
24083

> <PUBCHEM_COMPOUND_CANONICALIZED>
1

> <PUBCHEM_CACTVS_COMPLEXITY>
62.2

> <PUBCHEM_CACTVS_HBOND_ACCEPTOR>
4

> <PUBCHEM_CACTVS_HBOND_DONOR>
0

> <PUBCHEM_CACTVS_ROTATABLE_BOND>
0

> <PUBCHEM_CACTVS_SUBSKEYS>
AAADcQAAOABAACAAAAAAAAAAAAAAAAAAAAAAAAAAAAAAAAAAAAAAAAAAAAAAAAAAAAAAAAAAAAAAAAAAADAAAAAAAAAAAAAAAAAAAAAAAAAAAAAAAAAAAAAAAAAAAAAAAAAAAAAAAAAAAAAAAAAAAAAAAA==

> <PUBCHEM_IUPAC_OPENEYE_NAME>
magnesium;sulfate

> <PUBCHEM_IUPAC_CAS_NAME>
magnesium;sulfate

> <PUBCHEM_IUPAC_NAME_MARKUP>
magnesium;sulfate

> <PUBCHEM_IUPAC_NAME>
magnesium;sulfate

> <PUBCHEM_IUPAC_SYSTEMATIC_NAME>
magnesium;sulfate

> <PUBCHEM_IUPAC_TRADITIONAL_NAME>
magnesium;sulfate

> <PUBCHEM_IUPAC_INCHI>
InChI=1S/Mg.H2O4S/c;1-5(2,3)4/h;(H2,1,2,3,4)/q+2;/p-2

> <PUBCHEM_IUPAC_INCHIKEY>
CSNNHWWHGAXBCP-UHFFFAOYSA-L

> <PUBCHEM_EXACT_MASS>
119.9367713

> <PUBCHEM_MOLECULAR_FORMULA>
MgO4S

> <PUBCHEM_MOLECULAR_WEIGHT>
120.37

> <PUBCHEM_OPENEYE_CAN_SMILES>
[O-]S(=O)(=O)[O-].[Mg+2]

> <PUBCHEM_OPENEYE_ISO_SMILES>
[O-]S(=O)(=O)[O-].[Mg+2]

> <PUBCHEM_CACTVS_TPSA>
88.6

> <PUBCHEM_MONOISOTOPIC_WEIGHT>
119.9367713

> <PUBCHEM_TOTAL_CHARGE>
0

> <PUBCHEM_HEAVY_ATOM_COUNT>
6

> <PUBCHEM_ATOM_DEF_STEREO_COUNT>
0

> <PUBCHEM_ATOM_UDEF_STEREO_COUNT>
0

> <PUBCHEM_BOND_DEF_STEREO_COUNT>
0

> <PUBCHEM_BOND_UDEF_STEREO_COUNT>
0

> <PUBCHEM_ISOTOPIC_ATOM_COUNT>
0

> <PUBCHEM_COMPONENT_COUNT>
2

> <PUBCHEM_CACTVS_TAUTO_COUNT>
1

> <PUBCHEM_COORDINATE_TYPE>
1
5
255

$$$$
24699
  SciTegic09112316442D

 67 66  0  0  1  0            999 V2000
   17.5885    0.0950    0.0000 O   0  0
   16.7224   -1.4050    0.0000 O   0  0
   19.3205    1.0950    0.0000 O   0  0
   21.0526    0.0950    0.0000 O   0  0
    8.9282    0.0950    0.0000 C   0  0
    9.7942   -0.4050    0.0000 C   0  0
    8.0622   -0.4050    0.0000 C   0  0
   10.6603    0.0950    0.0000 C   0  0
    7.1962    0.0950    0.0000 C   0  0
   11.5263   -0.4050    0.0000 C   0  0
    6.3301   -0.4050    0.0000 C   0  0
   12.3923    0.0950    0.0000 C   0  0
    5.4641    0.0950    0.0000 C   0  0
   13.2583   -0.4050    0.0000 C   0  0
    4.5981   -0.4050    0.0000 C   0  0
   14.1244    0.0950    0.0000 C   0  0
    3.7320    0.0950    0.0000 C   0  0
   14.9904   -0.4050    0.0000 C   0  0
    2.8660   -0.4050    0.0000 C   0  0
   15.8564    0.0950    0.0000 C   0  0
    2.0000    0.0950    0.0000 C   0  0
   16.7224   -0.4050    0.0000 C   0  0
   18.4545   -0.4050    0.0000 C   0  0
   19.3205    0.0950    0.0000 C   0  0
   20.1865   -0.4050    0.0000 C   0  0
    9.3267    0.5699    0.0000 H   0  0
    8.5297    0.5699    0.0000 H   0  0
    9.3957   -0.8799    0.0000 H   0  0
   10.1928   -0.8799    0.0000 H   0  0
    7.6636   -0.8799    0.0000 H   0  0
    8.4607   -0.8799    0.0000 H   0  0
   11.0588    0.5699    0.0000 H   0  0
   10.2617    0.5699    0.0000 H   0  0
    7.5947    0.5699    0.0000 H   0  0
    6.7976    0.5699    0.0000 H   0  0
   11.1278   -0.8799    0.0000 H   0  0
   11.9248   -0.8799    0.0000 H   0  0
    5.9316   -0.8799    0.0000 H   0  0
    6.7287   -0.8799    0.0000 H   0  0
   12.7908    0.5699    0.0000 H   0  0
   11.9938    0.5699    0.0000 H   0  0
    5.8626    0.5699    0.0000 H   0  0
    5.0656    0.5699    0.0000 H   0  0
   12.8598   -0.8799    0.0000 H   0  0
   13.6569   -0.8799    0.0000 H   0  0
    4.1996   -0.8799    0.0000 H   0  0
    4.9966   -0.8799    0.0000 H   0  0
   14.5229    0.5699    0.0000 H   0  0
   13.7258    0.5699    0.0000 H   0  0
    4.1306    0.5699    0.0000 H   0  0
    3.3335    0.5699    0.0000 H   0  0
   14.5919   -0.8799    0.0000 H   0  0
   15.3889   -0.8799    0.0000 H   0  0
    2.4675   -0.8799    0.0000 H   0  0
    3.2646   -0.8799    0.0000 H   0  0
   16.2549    0.5699    0.0000 H   0  0
   15.4579    0.5699    0.0000 H   0  0
    2.3100    0.6319    0.0000 H   0  0
    1.4631    0.4050    0.0000 H   0  0
    1.6900   -0.4419    0.0000 H   0  0
   18.0560   -0.8799    0.0000 H   0  0
   18.8530   -0.8799    0.0000 H   0  0
   19.8574    0.4050    0.0000 H   0  0
   19.7880   -0.8799    0.0000 H   0  0
   20.5851   -0.8799    0.0000 H   0  0
   19.8574    1.4050    0.0000 H   0  0
   21.5895   -0.2150    0.0000 H   0  0
  1 22  1  0
  1 23  1  0
  2 22  2  0
  3 24  1  0
  3 66  1  0
  4 25  1  0
  4 67  1  0
  5  6  1  0
  5  7  1  0
  5 26  1  0
  5 27  1  0
  6  8  1  0
  6 28  1  0
  6 29  1  0
  7  9  1  0
  7 30  1  0
  7 31  1  0
  8 10  1  0
  8 32  1  0
  8 33  1  0
  9 11  1  0
  9 34  1  0
  9 35  1  0
 10 12  1  0
 10 36  1  0
 10 37  1  0
 11 13  1  0
 11 38  1  0
 11 39  1  0
 12 14  1  0
 12 40  1  0
 12 41  1  0
 13 15  1  0
 13 42  1  0
 13 43  1  0
 14 16  1  0
 14 44  1  0
 14 45  1  0
 15 17  1  0
 15 46  1  0
 15 47  1  0
 16 18  1  0
 16 48  1  0
 16 49  1  0
 17 19  1  0
 17 50  1  0
 17 51  1  0
 18 20  1  0
 18 52  1  0
 18 53  1  0
 19 21  1  0
 19 54  1  0
 19 55  1  0
 20 22  1  0
 20 56  1  0
 20 57  1  0
 21 58  1  0
 21 59  1  0
 21 60  1  0
 23 24  1  0
 23 61  1  0
 23 62  1  0
 24 25  1  0
 24 63  1  0
 25 64  1  0
 25 65  1  0
M  END
> <Name>
24699

> <OBJECTID>
9223372101282627598

> <PUBCHEM_COMPOUND_CID>
24699

> <PUBCHEM_COMPOUND_CANONICALIZED>
1

> <PUBCHEM_CACTVS_COMPLEXITY>
281

> <PUBCHEM_CACTVS_HBOND_ACCEPTOR>
4

> <PUBCHEM_CACTVS_HBOND_DONOR>
2

> <PUBCHEM_CACTVS_ROTATABLE_BOND>
20

> <PUBCHEM_CACTVS_SUBSKEYS>
AAADcfB4OAAAAAAAAAAAAAAAAAAAAAAAAAAAAAAAAAAAAAAAAAAAGgAACAAACBSggAICCAAABgAIAACQCAAAAAAAAAAAAAEAAAABEBIAAAACQAAFAAADAAGIyKCAAAAAAAAAAAAAAAAAAAAAAAAAAAAAAA==

> <PUBCHEM_IUPAC_OPENEYE_NAME>
2,3-dihydroxypropyl octadecanoate

> <PUBCHEM_IUPAC_CAS_NAME>
octadecanoic acid 2,3-dihydroxypropyl ester

> <PUBCHEM_IUPAC_NAME_MARKUP>
2,3-dihydroxypropyl octadecanoate

> <PUBCHEM_IUPAC_NAME>
2,3-dihydroxypropyl octadecanoate

> <PUBCHEM_IUPAC_SYSTEMATIC_NAME>
2,3-bis(oxidanyl)propyl octadecanoate

> <PUBCHEM_IUPAC_TRADITIONAL_NAME>
stearic acid glyceryl ester

> <PUBCHEM_IUPAC_INCHI>
InChI=1S/C21H42O4/c1-2-3-4-5-6-7-8-9-10-11-12-13-14-15-16-17-21(24)25-19-20(23)18-22/h20,22-23H,2-19H2,1H3

> <PUBCHEM_IUPAC_INCHIKEY>
VBICKXHEKHSIBG-UHFFFAOYSA-N

> <PUBCHEM_XLOGP3>
7.4

> <PUBCHEM_EXACT_MASS>
358.30830982

> <PUBCHEM_MOLECULAR_FORMULA>
C21H42O4

> <PUBCHEM_MOLECULAR_WEIGHT>
358.6

> <PUBCHEM_OPENEYE_CAN_SMILES>
CCCCCCCCCCCCCCCCCC(=O)OCC(CO)O

> <PUBCHEM_OPENEYE_ISO_SMILES>
CCCCCCCCCCCCCCCCCC(=O)OCC(CO)O

> <PUBCHEM_CACTVS_TPSA>
66.8

> <PUBCHEM_MONOISOTOPIC_WEIGHT>
358.30830982

> <PUBCHEM_TOTAL_CHARGE>
0

> <PUBCHEM_HEAVY_ATOM_COUNT>
25

> <PUBCHEM_ATOM_DEF_STEREO_COUNT>
0

> <PUBCHEM_ATOM_UDEF_STEREO_COUNT>
1

> <PUBCHEM_BOND_DEF_STEREO_COUNT>
0

> <PUBCHEM_BOND_UDEF_STEREO_COUNT>
0

> <PUBCHEM_ISOTOPIC_ATOM_COUNT>
0

> <PUBCHEM_COMPONENT_COUNT>
1

> <PUBCHEM_CACTVS_TAUTO_COUNT>
1

> <PUBCHEM_COORDINATE_TYPE>
1
5
255

> <PUBCHEM_BONDANNOTATIONS>
24  3  3

$$$$
28523
  SciTegic09112316442D

155164  0  0  1  0            999 V2000
    5.5982    7.6604    0.0000 O   0  0
   12.0262    2.3059    0.0000 O   0  0
   11.1602    0.8059    0.0000 O   0  0
   13.7583    1.3059    0.0000 O   0  0
   13.7583   -0.6941    0.0000 O   0  0
   12.0262   -1.6941    0.0000 O   0  0
    9.4281   -0.1941    0.0000 O   0  0
   10.2942   -1.6941    0.0000 O   0  0
   12.0262   -3.6941    0.0000 O   0  0
   10.2942   -4.6941    0.0000 O   0  0
    8.5621   -3.6941    0.0000 O   0  0
   12.0262   -5.4262    0.0000 O   0  0
    8.5621   -0.6941    0.0000 O   0  0
    8.5621   -4.6941    0.0000 O   0  0
   14.0262   -3.6941    0.0000 O   0  0
   15.0262   -5.4262    0.0000 O   0  0
   10.2942   -6.6941    0.0000 O   0  0
   14.0263   -7.1582    0.0000 O   0  0
    8.5621   -7.6941    0.0000 O   0  0
    6.8300   -6.6941    0.0000 O   0  0
   12.5263   -8.0242    0.0000 O   0  0
    4.6368    8.1572    0.0000 N   0  0
    6.6742    5.4297    0.0000 C   0  0  1  0  0  0
    7.5383    5.9330    0.0000 C   0  0  2  0  0  0
    5.9346    6.0939    0.0000 C   0  0  2  0  0  0
    8.4062    5.4363    0.0000 C   0  0  1  0  0  0
    8.4101    4.4363    0.0000 C   0  0  1  0  0  0
    6.3362    7.0032    0.0000 C   0  0  2  0  0  0
    9.3061    3.9051    0.0000 C   0  0  2  0  0  0
    7.3253    6.9040    0.0000 C   0  0
    6.6780    4.4297    0.0000 C   0  0
    4.9518    6.1968    0.0000 C   0  0  1  0  0  0
    7.5460    3.9330    0.0000 C   0  0
   10.2102    4.4225    0.0000 C   0  0  1  0  0  0
    9.2981    5.9744    0.0000 C   0  0
    4.7443    7.1630    0.0000 C   0  0  2  0  0  0
   10.2061    5.4641    0.0000 C   0  0
    5.8101    4.9263    0.0000 C   0  0
    9.2852    2.8203    0.0000 C   0  0
   11.1560    3.8909    0.0000 C   0  0
    8.4381    3.4085    0.0000 C   0  0
    3.9370    6.5728    0.0000 C   0  0
    4.2836    5.4528    0.0000 C   0  0
   10.2185    2.2670    0.0000 C   0  0
   11.1602    2.8059    0.0000 C   0  0  2  0  0  0
    3.0223    6.9768    0.0000 C   0  0
    3.7220    8.5612    0.0000 C   0  0
    2.9148    7.9710    0.0000 C   0  0  1  0  0  0
    2.0000    8.3750    0.0000 C   0  0
   12.0262    1.3059    0.0000 C   0  0  2  0  0  0
   12.8922    0.8059    0.0000 C   0  0  1  0  0  0
   12.8922   -0.1941    0.0000 C   0  0  2  0  0  0
   11.1602   -0.1941    0.0000 C   0  0  1  0  0  0
   12.0262   -0.6941    0.0000 C   0  0  2  0  0  0
   10.2942   -0.6941    0.0000 C   0  0
   11.1602   -2.1941    0.0000 C   0  0  2  0  0  0
   11.1602   -3.1941    0.0000 C   0  0  1  0  0  0
   10.2942   -3.6941    0.0000 C   0  0  2  0  0  0
    9.4281   -2.1941    0.0000 C   0  0  1  0  0  0
    9.4281   -3.1941    0.0000 C   0  0  1  0  0  0
    8.5621   -1.6941    0.0000 C   0  0
   12.5263   -4.5601    0.0000 C   0  0  2  0  0  0
    9.4281   -5.1941    0.0000 C   0  0  2  0  0  0
   13.5262   -4.5601    0.0000 C   0  0  1  0  0  0
   14.0262   -5.4262    0.0000 C   0  0  2  0  0  0
    9.4281   -6.1941    0.0000 C   0  0  1  0  0  0
   12.5263   -6.2922    0.0000 C   0  0  1  0  0  0
   13.5263   -6.2921    0.0000 C   0  0  1  0  0  0
    8.5621   -6.6941    0.0000 C   0  0  2  0  0  0
    7.6961   -5.1941    0.0000 C   0  0
    7.6961   -6.1941    0.0000 C   0  0  1  0  0  0
   12.0262   -7.1582    0.0000 C   0  0
    8.2234    6.4361    0.0000 H   0  0
    5.5895    5.3171    0.0000 H   0  0
    8.3964    6.2863    0.0000 H   0  0
    9.1478    4.8585    0.0000 H   0  0
    6.6779    7.7815    0.0000 H   0  0
    7.9415    6.9724    0.0000 H   0  0
    7.3220    7.5240    0.0000 H   0  0
    6.0670    4.5350    0.0000 H   0  0
    6.4682    3.8462    0.0000 H   0  0
    4.3526    6.3563    0.0000 H   0  0
    7.1493    3.4565    0.0000 H   0  0
    7.9463    3.4596    0.0000 H   0  0
   10.9430    4.8531    0.0000 H   0  0
    9.6899    6.4550    0.0000 H   0  0
    8.8917    6.4427    0.0000 H   0  0
   10.8174    5.3604    0.0000 H   0  0
   10.4129    6.0486    0.0000 H   0  0
    5.4980    5.4621    0.0000 H   0  0
    5.2744    4.6143    0.0000 H   0  0
    6.1222    4.3906    0.0000 H   0  0
    8.6765    2.9382    0.0000 H   0  0
    9.0649    2.2408    0.0000 H   0  0
   11.7673    3.7871    0.0000 H   0  0
   11.3628    4.4754    0.0000 H   0  0
    8.1302    3.9466    0.0000 H   0  0
    7.9000    3.1006    0.0000 H   0  0
    8.7460    2.8704    0.0000 H   0  0
    3.5918    6.0577    0.0000 H   0  0
    4.3843    6.1434    0.0000 H   0  0
    3.8223    5.8671    0.0000 H   0  0
    3.8693    4.9916    0.0000 H   0  0
    4.7449    5.0385    0.0000 H   0  0
    9.8157    1.7957    0.0000 H   0  0
   10.6139    1.7895    0.0000 H   0  0
   11.1590    2.1859    0.0000 H   0  0
    5.1373    8.5231    0.0000 H   0  0
    2.4036    7.0182    0.0000 H   0  0
    2.8741    6.3747    0.0000 H   0  0
    4.0672    9.0762    0.0000 H   0  0
    3.2747    8.9905    0.0000 H   0  0
    2.8481    8.5874    0.0000 H   0  0
    2.2505    8.9421    0.0000 H   0  0
    1.4328    8.6255    0.0000 H   0  0
    1.7495    7.8078    0.0000 H   0  0
   12.5631    1.6159    0.0000 H   0  0
   13.4292    0.4959    0.0000 H   0  0
   13.4292    0.1159    0.0000 H   0  0
   10.6232    0.1159    0.0000 H   0  0
   12.5631   -1.0041    0.0000 H   0  0
   13.7583    1.9259    0.0000 H   0  0
    9.8956   -1.1691    0.0000 H   0  0
   10.6927   -1.1691    0.0000 H   0  0
   14.2952   -0.3841    0.0000 H   0  0
   11.1602   -1.5741    0.0000 H   0  0
    9.4281    0.4259    0.0000 H   0  0
   11.1602   -3.8141    0.0000 H   0  0
    9.7572   -4.0041    0.0000 H   0  0
    9.4281   -1.5741    0.0000 H   0  0
    8.8912   -2.8841    0.0000 H   0  0
    7.9515   -1.5864    0.0000 H   0  0
    8.3500   -2.2767    0.0000 H   0  0
   12.8363   -4.0232    0.0000 H   0  0
    8.0252   -3.3841    0.0000 H   0  0
    9.4281   -4.5741    0.0000 H   0  0
   14.1462   -4.5601    0.0000 H   0  0
   14.3362   -5.9631    0.0000 H   0  0
    9.4281   -6.8141    0.0000 H   0  0
    8.0252   -0.3841    0.0000 H   0  0
   11.9063   -6.2922    0.0000 H   0  0
   14.1463   -6.2921    0.0000 H   0  0
    8.0252   -7.0041    0.0000 H   0  0
   14.6462   -3.6941    0.0000 H   0  0
    7.4840   -4.6115    0.0000 H   0  0
    7.0855   -5.3018    0.0000 H   0  0
    7.1591   -5.8841    0.0000 H   0  0
   11.5513   -6.7597    0.0000 H   0  0
   11.5513   -7.5568    0.0000 H   0  0
   15.3362   -4.8892    0.0000 H   0  0
   10.2942   -7.3141    0.0000 H   0  0
   14.6462   -7.1582    0.0000 H   0  0
    8.0252   -8.0041    0.0000 H   0  0
    6.2931   -6.3841    0.0000 H   0  0
   12.2162   -8.5612    0.0000 H   0  0
  1 28  1  0
 36  1  1  6
 45  2  1  1
 50  2  1  1
  3 50  1  0
  3 53  1  0
 51  4  1  6
  4122  1  0
 52  5  1  1
  5125  1  0
 54  6  1  1
 56  6  1  1
  7 55  1  0
  7127  1  0
  8 56  1  0
  8 59  1  0
 57  9  1  6
 62  9  1  1
 58 10  1  1
 63 10  1  1
 60 11  1  6
 11135  1  0
 12 62  1  0
 12 67  1  0
 13 61  1  0
 13140  1  0
 14 63  1  0
 14 70  1  0
 64 15  1  6
 15144  1  0
 65 16  1  1
 16150  1  0
 66 17  1  6
 17151  1  0
 68 18  1  6
 18152  1  0
 69 19  1  1
 19153  1  0
 71 20  1  6
 20154  1  0
 21 72  1  0
 21155  1  0
 22 36  1  0
 22 47  1  0
 22108  1  0
 23 24  1  0
 23 25  1  0
 23 31  1  0
 23 38  1  1
 24 26  1  0
 24 30  1  0
 24 73  1  6
 25 28  1  0
 25 32  1  0
 25 74  1  6
 26 27  1  0
 26 35  1  0
 26 75  1  1
 27 29  1  0
 27 33  1  0
 27 76  1  6
 28 30  1  0
 28 77  1  6
 29 34  1  0
 29 39  1  0
 29 41  1  1
 30 78  1  0
 30 79  1  0
 31 33  1  0
 31 80  1  0
 31 81  1  0
 32 36  1  0
 32 43  1  6
 32 82  1  0
 33 83  1  0
 33 84  1  0
 34 37  1  0
 34 40  1  0
 34 85  1  6
 35 37  1  0
 35 86  1  0
 35 87  1  0
 36 42  1  0
 37 88  1  0
 37 89  1  0
 38 90  1  0
 38 91  1  0
 38 92  1  0
 39 44  1  0
 39 93  1  0
 39 94  1  0
 40 45  1  0
 40 95  1  0
 40 96  1  0
 41 97  1  0
 41 98  1  0
 41 99  1  0
 42 46  1  0
 42100  1  0
 42101  1  0
 43102  1  0
 43103  1  0
 43104  1  0
 44 45  1  0
 44105  1  0
 44106  1  0
 45107  1  0
 46 48  1  0
 46109  1  0
 46110  1  0
 47 48  1  0
 47111  1  0
 47112  1  0
 48 49  1  6
 48113  1  0
 49114  1  0
 49115  1  0
 49116  1  0
 50 51  1  0
 50117  1  0
 51 52  1  0
 51118  1  0
 52 54  1  0
 52119  1  0
 53 54  1  0
 53 55  1  1
 53120  1  0
 54121  1  0
 55123  1  0
 55124  1  0
 56 57  1  0
 56126  1  0
 57 58  1  0
 57128  1  0
 58 60  1  0
 58129  1  0
 59 60  1  0
 59 61  1  1
 59130  1  0
 60131  1  0
 61132  1  0
 61133  1  0
 62 64  1  0
 62134  1  0
 63 66  1  0
 63136  1  0
 64 65  1  0
 64137  1  0
 65 68  1  0
 65138  1  0
 66 69  1  0
 66139  1  0
 67 68  1  0
 67 72  1  1
 67141  1  0
 68142  1  0
 69 71  1  0
 69143  1  0
 70 71  1  0
 70145  1  0
 70146  1  0
 71147  1  0
 72148  1  0
 72149  1  0
M  END
> <Name>
28523

> <OBJECTID>
9223372105577594894

> <PUBCHEM_COMPOUND_CID>
28523

> <PUBCHEM_COMPOUND_CANONICALIZED>
1

> <PUBCHEM_CACTVS_COMPLEXITY>
1840

> <PUBCHEM_CACTVS_HBOND_ACCEPTOR>
22

> <PUBCHEM_CACTVS_HBOND_DONOR>
13

> <PUBCHEM_CACTVS_ROTATABLE_BOND>
11

> <PUBCHEM_CACTVS_SUBSKEYS>
AAADcfB+PgAAAAAAAAAAAAAAAAAAAaIAAAA8aNEiQAASAGDAAAAAHgAQCAAADxzxgAcCCALABgAAAAAAAAAAAAAAAAAAAIAIAAEREAIAgAAuQAAFEACHAAHw8PwPgAAAAAAAAADAAAYAACAAAYAADAAAAA==

> <PUBCHEM_IUPAC_OPENEYE_NAME>
(2S,3R,4S,5S,6R)-2-[(2S,3R,4S,5R,6R)-2-[(2R,3R,4R,5R,6R)-4,5-dihydroxy-2-(hydroxymethyl)-6-[(1R,2S,4S,5'S,6S,7S,8R,9S,12S,13S,16S,18S)-5',7,9,13-tetramethylspiro[5-oxapentacyclo[10.8.0.02,9.04,8.013,18]icosane-6,2'-piperidine]-16-yl]oxy-tetrahydropyran-3-yl]oxy-5-hydroxy-6-(hydroxymethyl)-4-[(2S,3R,4S,5R)-3,4,5-trihydroxytetrahydropyran-2-yl]oxy-tetrahydropyran-3-yl]oxy-6-(hydroxymethyl)tetrahydropyran-3,4,5-triol

> <PUBCHEM_IUPAC_CAS_NAME>
(2S,3R,4S,5S,6R)-2-[[(2S,3R,4S,5R,6R)-2-[[(2R,3R,4R,5R,6R)-4,5-dihydroxy-2-(hydroxymethyl)-6-[[(1R,2S,4S,5'S,6S,7S,8R,9S,12S,13S,16S,18S)-5',7,9,13-tetramethyl-16-spiro[5-oxapentacyclo[10.8.0.02,9.04,8.013,18]eicosane-6,2'-piperidine]yl]oxy]-3-oxanyl]oxy]-5-hydroxy-6-(hydroxymethyl)-4-[[(2S,3R,4S,5R)-3,4,5-trihydroxy-2-oxanyl]oxy]-3-oxanyl]oxy]-6-(hydroxymethyl)oxane-3,4,5-triol

> <PUBCHEM_IUPAC_NAME_MARKUP>
(2<I>S</I>,3<I>R</I>,4<I>S</I>,5<I>S</I>,6<I>R</I>)-2-[(2<I>S</I>,3<I>R</I>,4<I>S</I>,5<I>R</I>,6<I>R</I>)-2-[(2<I>R</I>,3<I>R</I>,4<I>R</I>,5<I>R</I>,6<I>R</I>)-4,5-dihydroxy-2-(hydroxymethyl)-6-[(1<I>R</I>,2<I>S</I>,4<I>S</I>,5&apos;<I>S</I>,6<I>S</I>,7<I>S</I>,8<I>R</I>,9<I>S</I>,12<I>S</I>,13<I>S</I>,16<I>S</I>,18<I>S</I>)-5&apos;,7,9,13-tetramethylspiro[5-oxapentacyclo[10.8.0.0<SUP>2,9</SUP>.0<SUP>4,8</SUP>.0<SUP>13,18</SUP>]icosane-6,2&apos;-piperidine]-16-yl]oxyoxan-3-yl]oxy-5-hydroxy-6-(hydroxymethyl)-4-[(2<I>S</I>,3<I>R</I>,4<I>S</I>,5<I>R</I>)-3,4,5-trihydroxyoxan-2-yl]oxyoxan-3-yl]oxy-6-(hydroxymethyl)oxane-3,4,5-triol

> <PUBCHEM_IUPAC_NAME>
(2S,3R,4S,5S,6R)-2-[(2S,3R,4S,5R,6R)-2-[(2R,3R,4R,5R,6R)-4,5-dihydroxy-2-(hydroxymethyl)-6-[(1R,2S,4S,5'S,6S,7S,8R,9S,12S,13S,16S,18S)-5',7,9,13-tetramethylspiro[5-oxapentacyclo[10.8.0.02,9.04,8.013,18]icosane-6,2'-piperidine]-16-yl]oxyoxan-3-yl]oxy-5-hydroxy-6-(hydroxymethyl)-4-[(2S,3R,4S,5R)-3,4,5-trihydroxyoxan-2-yl]oxyoxan-3-yl]oxy-6-(hydroxymethyl)oxane-3,4,5-triol

> <PUBCHEM_IUPAC_SYSTEMATIC_NAME>
(2R,3S,4S,5R,6S)-2-(hydroxymethyl)-6-[(2S,3R,4S,5R,6R)-6-(hydroxymethyl)-2-[(2R,3R,4R,5R,6R)-2-(hydroxymethyl)-4,5-bis(oxidanyl)-6-[(1R,2S,4S,5'S,6S,7S,8R,9S,12S,13S,16S,18S)-5',7,9,13-tetramethylspiro[5-oxapentacyclo[10.8.0.02,9.04,8.013,18]icosane-6,2'-piperidine]-16-yl]oxy-oxan-3-yl]oxy-5-oxidanyl-4-[(2S,3R,4S,5R)-3,4,5-tris(oxidanyl)oxan-2-yl]oxy-oxan-3-yl]oxy-oxane-3,4,5-triol

> <PUBCHEM_IUPAC_TRADITIONAL_NAME>
(2S,3R,4S,5S,6R)-2-[(2S,3R,4S,5R,6R)-2-[(2R,3R,4R,5R,6R)-4,5-dihydroxy-2-methylol-6-[(1R,2S,4S,5'S,6S,7S,8R,9S,12S,13S,16S,18S)-5',7,9,13-tetramethylspiro[5-oxapentacyclo[10.8.0.02,9.04,8.013,18]eicosane-6,2'-piperidine]-16-yl]oxy-tetrahydropyran-3-yl]oxy-5-hydroxy-6-methylol-4-[(2S,3R,4S,5R)-3,4,5-trihydroxytetrahydropyran-2-yl]oxy-tetrahydropyran-3-yl]oxy-6-methylol-tetrahydropyran-3,4,5-triol

> <PUBCHEM_IUPAC_INCHI>
InChI=1S/C50H83NO21/c1-20-7-12-50(51-15-20)21(2)32-28(72-50)14-26-24-6-5-22-13-23(8-10-48(22,3)25(24)9-11-49(26,32)4)65-45-40(63)37(60)41(31(18-54)68-45)69-47-43(71-46-39(62)36(59)34(57)29(16-52)66-46)42(35(58)30(17-53)67-47)70-44-38(61)33(56)27(55)19-64-44/h20-47,51-63H,5-19H2,1-4H3/t20-,21-,22-,23-,24+,25-,26-,27+,28-,29+,30+,31+,32-,33-,34+,35+,36-,37+,38+,39+,40+,41-,42-,43+,44-,45+,46-,47-,48-,49-,50-/m0/s1

> <PUBCHEM_IUPAC_INCHIKEY>
REJLGAUYTKNVJM-SGXCCWNXSA-N

> <PUBCHEM_XLOGP3_AA>
-0.7

> <PUBCHEM_EXACT_MASS>
1033.54575866

> <PUBCHEM_MOLECULAR_FORMULA>
C50H83NO21

> <PUBCHEM_MOLECULAR_WEIGHT>
1034.2

> <PUBCHEM_OPENEYE_CAN_SMILES>
CC1CCC2(C(C3C(O2)CC4C3(CCC5C4CCC6C5(CCC(C6)OC7C(C(C(C(O7)CO)OC8C(C(C(C(O8)CO)O)OC9C(C(C(CO9)O)O)O)OC2C(C(C(C(O2)CO)O)O)O)O)O)C)C)C)NC1

> <PUBCHEM_OPENEYE_ISO_SMILES>
C[C@H]1CC[C@]2([C@H]([C@H]3[C@@H](O2)C[C@@H]4[C@@]3(CC[C@H]5[C@H]4CC[C@@H]6[C@@]5(CC[C@@H](C6)O[C@H]7[C@@H]([C@H]([C@H]([C@H](O7)CO)O[C@H]8[C@@H]([C@H]([C@@H]([C@H](O8)CO)O)O[C@H]9[C@@H]([C@H]([C@@H](CO9)O)O)O)O[C@H]2[C@@H]([C@H]([C@@H]([C@H](O2)CO)O)O)O)O)O)C)C)C)NC1

> <PUBCHEM_CACTVS_TPSA>
338

> <PUBCHEM_MONOISOTOPIC_WEIGHT>
1033.54575866

> <PUBCHEM_TOTAL_CHARGE>
0

> <PUBCHEM_HEAVY_ATOM_COUNT>
72

> <PUBCHEM_ATOM_DEF_STEREO_COUNT>
31

> <PUBCHEM_ATOM_UDEF_STEREO_COUNT>
0

> <PUBCHEM_BOND_DEF_STEREO_COUNT>
0

> <PUBCHEM_BOND_UDEF_STEREO_COUNT>
0

> <PUBCHEM_ISOTOPIC_ATOM_COUNT>
0

> <PUBCHEM_COMPONENT_COUNT>
1

> <PUBCHEM_CACTVS_TAUTO_COUNT>
-1

> <PUBCHEM_COORDINATE_TYPE>
1
5
255

> <PUBCHEM_BONDANNOTATIONS>
36  1  6
58  10  5
63  10  5
60  11  6
64  15  6
65  16  5
66  17  6
68  18  6
69  19  5
45  2  5
50  2  5
71  20  6
23  38  5
24  73  6
25  74  6
26  75  5
27  76  6
28  77  6
29  41  5
32  43  6
34  85  6
51  4  6
48  49  6
52  5  5
53  55  5
59  61  5
54  6  5
56  6  5
67  72  5
57  9  6
62  9  5

$$$$
65080
  SciTegic09112316443D

 34 35  0  0  1  0            999 V2000
    0.4241    0.5970   -0.3344 O   0  0
    3.9348   -1.5336   -0.3851 O   0  0
    3.9437    1.2324    0.4545 O   0  0
   -0.8486   -1.3565   -0.4228 O   0  0
    1.4148   -2.8421    0.4009 O   0  0
    0.2669    3.3017    0.1304 O   0  0
    2.8182   -0.8868    0.2275 C   0  0  1  0  0  0
    2.8431    0.5865   -0.1800 C   0  0  1  0  0  0
    1.5254   -1.5647   -0.2263 C   0  0  2  0  0  0
    1.5434    1.2847    0.2271 C   0  0  1  0  0  0
    0.2991   -0.7359    0.1558 C   0  0  1  0  0  0
    1.4959    2.7253   -0.2721 C   0  0
   -2.0533   -0.7500   -0.1943 C   0  0
   -2.5099   -0.5907    1.1102 C   0  0
   -2.8129   -0.2974   -1.2687 C   0  0
   -3.7387    0.0270    1.3430 C   0  0
   -4.0416    0.3205   -1.0358 C   0  0
   -4.5044    0.4827    0.2701 C   0  0
    2.9523   -0.9975    1.3106 H   0  0
    2.9985    0.6623   -1.2633 H   0  0
    1.5497   -1.7435   -1.3078 H   0  0
    1.4298    1.3008    1.3197 H   0  0
    0.1916   -0.7225    1.2484 H   0  0
    1.5446    2.7724   -1.3651 H   0  0
    2.3104    3.3253    0.1435 H   0  0
    4.7376   -1.0719   -0.0879 H   0  0
    3.8108    1.1766    1.4162 H   0  0
    1.3935   -2.7050    1.3634 H   0  0
   -0.4490    2.7561   -0.2382 H   0  0
   -1.9365   -0.9553    1.9575 H   0  0
   -2.4559   -0.4212   -2.2872 H   0  0
   -4.1012    0.1496    2.3595 H   0  0
   -4.6380    0.6754   -1.8713 H   0  0
   -5.4616    0.9628    0.4513 H   0  0
  1 10  1  0
  1 11  1  0
  2  7  1  0
  2 26  1  0
  3  8  1  0
  3 27  1  0
  4 11  1  0
  4 13  1  0
  5  9  1  0
  5 28  1  0
  6 12  1  0
  6 29  1  0
  7  8  1  0
  7  9  1  0
  7 19  1  0
  8 10  1  0
  8 20  1  0
  9 11  1  0
  9 21  1  0
 10 12  1  0
 10 22  1  0
 11 23  1  0
 12 24  1  0
 12 25  1  0
 13 14  2  0
 13 15  1  0
 14 16  1  0
 14 30  1  0
 15 17  2  0
 15 31  1  0
 16 18  2  0
 16 32  1  0
 17 18  1  0
 17 33  1  0
 18 34  1  0
M  END
> <Name>
65080

> <OBJECTID>
9223372109872562190

> <PUBCHEM_COMPOUND_CID>
65080

> <PUBCHEM_CONFORMER_RMSD>
0.6

> <PUBCHEM_CONFORMER_DIVERSEORDER>
1
74
49
40
13
78
7
22
67
11
77
53
39
71
42
26
75
69
56
37
18
24
46
60
52
57
63
43
9
8
19
58
25
41
59
47
33
29
73
50
31
14
51
28
16
54
65
72
12
2
44
68
55
21
48
66
35
3
6
64
70
30
10
38
45
36
76
15
20
32
4
27
5
61
17
34
23
62

> <PUBCHEM_MMFF94_PARTIAL_CHARGES>
27
1 -0.56
10 0.28
11 0.56
12 0.28
13 0.08
14 -0.15
15 -0.15
16 -0.15
17 -0.15
18 -0.15
2 -0.68
26 0.4
27 0.4
28 0.4
29 0.4
3 -0.68
30 0.15
31 0.15
32 0.15
33 0.15
34 0.15
4 -0.36
5 -0.68
6 -0.68
7 0.28
8 0.28
9 0.28

> <PUBCHEM_EFFECTIVE_ROTOR_COUNT>
4.2

> <PUBCHEM_PHARMACOPHORE_FEATURES>
12
1 1 acceptor
1 2 acceptor
1 2 donor
1 3 acceptor
1 3 donor
1 4 acceptor
1 5 acceptor
1 5 donor
1 6 acceptor
1 6 donor
6 1 7 8 9 10 11 rings
6 13 14 15 16 17 18 rings

> <PUBCHEM_HEAVY_ATOM_COUNT>
18

> <PUBCHEM_ATOM_DEF_STEREO_COUNT>
5

> <PUBCHEM_ATOM_UDEF_STEREO_COUNT>
0

> <PUBCHEM_BOND_DEF_STEREO_COUNT>
0

> <PUBCHEM_BOND_UDEF_STEREO_COUNT>
0

> <PUBCHEM_ISOTOPIC_ATOM_COUNT>
0

> <PUBCHEM_COMPONENT_COUNT>
1

> <PUBCHEM_CACTVS_TAUTO_COUNT>
1

> <PUBCHEM_CONFORMER_ID>
0000FE3800000001

> <PUBCHEM_MMFF94_ENERGY>
57.2771

> <PUBCHEM_FEATURE_SELFOVERLAP>
60.959

> <PUBCHEM_SHAPE_FINGERPRINT>
10366900 7 17749111097570957451
104564 63 18124600786234116884
10980938 120 18410008840554365038
11471102 20 18410008836185421358
11640471 11 17775297083603905073
116883 192 18198345044241771300
12236239 1 17775565326065944783
12654215 9 18261105262381052798
13134695 92 18410005516360382988
13140716 1 18193555794639399536
14790565 3 18193003831777570700
15219456 202 18114181938808980947
15653759 3 17240483619794320011
16945 1 18409728473636947278
1813 80 17770797714282678710
18186145 218 18341620346951707494
18219364 16 18261671584005192061
18785283 64 18043263537628414293
19049666 15 17678449775852159055
200 152 18201150053529647511
20645476 183 17988917912357421423
20645477 70 18341045237835355078
20671657 1 18341333408908491197
20681677 76 18261393416385557475
21041028 32 18192994820381282337
21524375 3 18122625230016102094
21639500 275 18339352080423151141
22094290 62 18340769342041909713
22289505 5 18263350400843082061
22854114 111 18411141354958600891
23175994 123 18263089833561368095
23184049 59 18341896285588797623
23559900 14 16806166532017950451
23598291 2 18059847372757216727
25 1 18334857242286510134
2748010 2 18337940191803425796
3472631 163 15769781230410730153
350125 39 17977109285701555355
474 4 18339921627303862297
602551 16 16154002334304847883
74978 22 18341332300812164551
77492 1 17703788107145141487
7832392 63 18270678783122939126
81228 2 17903921058850452768
84936 182 17771902993808758184
9971528 1 18273210885571658452
9981440 41 17264668696302020824

> <PUBCHEM_SHAPE_MULTIPOLES>
335.22
7.7
2.57
1
3.58
1.32
-0.03
0.13
-0.24
-2.55
-0.05
1.06
-0.05
0.13

> <PUBCHEM_SHAPE_SELFOVERLAP>
700.036

> <PUBCHEM_SHAPE_VOLUME>
187.4

> <PUBCHEM_COORDINATE_TYPE>
2
5
10

$$$$
65727
  SciTegic09112316443D

 72 77  0  0  1  0            999 V2000
   -7.7943    0.7827    0.0306 O   0  0
    3.7134    0.5137    0.0607 N   0  0  2  0  0  0
    0.7511   -1.0814   -0.0059 C   0  0  2  0  0  0
    2.1123   -1.1028    0.7420 C   0  0  2  0  0  0
    0.1597    0.2286    0.5651 C   0  0  2  0  0  0
    2.5146    0.3965    0.8812 C   0  0  2  0  0  0
   -1.2121    0.5830   -0.0169 C   0  0  1  0  0  0
    1.3072    1.2231    0.4129 C   0  0
    3.3321   -1.7798    0.0830 C   0  0  1  0  0  0
   -2.2067   -0.5842    0.2526 C   0  0  2  0  0  0
   -0.2004   -2.2197    0.3914 C   0  0
    4.4432   -0.7428    0.2861 C   0  0  1  0  0  0
   -1.6261   -1.9731   -0.1327 C   0  0
   -3.6306   -0.2846   -0.3663 C   0  0  2  0  0  0
    0.9179   -1.0597   -1.5458 C   0  0
   -1.7462    1.8840    0.6011 C   0  0
    5.6173   -0.8461   -0.6818 C   0  0
    4.5418    1.6797    0.3500 C   0  0
    3.6569   -3.1326    0.7026 C   0  0
   -4.0609    1.1590   -0.0702 C   0  0
    5.7637    1.6848   -0.5905 C   0  0  2  0  0  0
   -4.6578   -1.2646    0.2753 C   0  0
    6.5442    0.3602   -0.5051 C   0  0
   -3.2081    2.0993    0.3726 C   0  0
   -3.6285   -0.4775   -1.9020 C   0  0
   -5.5160    1.5041   -0.2890 C   0  0
   -6.1188   -0.9247   -0.0161 C   0  0
   -6.4460    0.5061    0.3957 C   0  0  2  0  0  0
    6.6774    2.8690   -0.2808 C   0  0
    1.9696   -1.5026    1.7563 H   0  0
    0.0114    0.0938    1.6504 H   0  0
    2.7297    0.6042    1.9389 H   0  0
   -1.1192    0.7462   -1.0962 H   0  0
    1.4113    1.5611   -0.6243 H   0  0
    1.1759    2.1149    1.0342 H   0  0
    3.1823   -1.9373   -0.9889 H   0  0
   -2.3360   -0.6194    1.3469 H   0  0
   -0.2428   -2.3153    1.4841 H   0  0
    0.1704   -3.1795    0.0121 H   0  0
    4.8176   -0.7914    1.3199 H   0  0
   -1.6193   -2.1001   -1.2189 H   0  0
   -2.2717   -2.7653    0.2630 H   0  0
    1.2233   -2.0450   -1.9162 H   0  0
   -0.0075   -0.8116   -2.0720 H   0  0
    1.6684   -0.3352   -1.8762 H   0  0
   -1.1959    2.7329    0.1780 H   0  0
   -1.5690    1.8995    1.6837 H   0  0
    5.2600   -0.8798   -1.7191 H   0  0
    6.1777   -1.7709   -0.5058 H   0  0
    4.8685    1.6830    1.3983 H   0  0
    3.9621    2.5960    0.1857 H   0  0
    4.5359   -3.5779    0.2259 H   0  0
    3.8644   -3.0443    1.7744 H   0  0
    2.8178   -3.8244    0.5764 H   0  0
    5.4033    1.8001   -1.6223 H   0  0
   -4.5258   -1.2726    1.3659 H   0  0
   -4.4711   -2.2901   -0.0652 H   0  0
    7.0446    0.2870    0.4691 H   0  0
    7.3295    0.3347   -1.2695 H   0  0
   -3.5767    3.1000    0.5856 H   0  0
   -2.8448    0.1148   -2.3852 H   0  0
   -3.4760   -1.5259   -2.1778 H   0  0
   -4.5770   -0.1786   -2.3605 H   0  0
   -5.7504    2.5129    0.0749 H   0  0
   -5.7298    1.5367   -1.3647 H   0  0
   -6.3463   -1.0751   -1.0786 H   0  0
   -6.7754   -1.6200    0.5217 H   0  0
   -6.3682    0.6017    1.4857 H   0  0
    7.5277    2.8938   -0.9704 H   0  0
    6.1349    3.8147   -0.3830 H   0  0
    7.0704    2.8125    0.7399 H   0  0
   -7.9899    1.6955    0.3027 H   0  0
  1 28  1  0
  1 72  1  0
  2  6  1  0
  2 12  1  0
  2 18  1  0
  3  4  1  0
  3  5  1  0
  3 11  1  0
  3 15  1  0
  4  6  1  0
  4  9  1  0
  4 30  1  0
  5  7  1  0
  5  8  1  0
  5 31  1  0
  6  8  1  0
  6 32  1  0
  7 10  1  0
  7 16  1  0
  7 33  1  0
  8 34  1  0
  8 35  1  0
  9 12  1  0
  9 19  1  0
  9 36  1  0
 10 13  1  0
 10 14  1  0
 10 37  1  0
 11 13  1  0
 11 38  1  0
 11 39  1  0
 12 17  1  0
 12 40  1  0
 13 41  1  0
 13 42  1  0
 14 20  1  0
 14 22  1  0
 14 25  1  0
 15 43  1  0
 15 44  1  0
 15 45  1  0
 16 24  1  0
 16 46  1  0
 16 47  1  0
 17 23  1  0
 17 48  1  0
 17 49  1  0
 18 21  1  0
 18 50  1  0
 18 51  1  0
 19 52  1  0
 19 53  1  0
 19 54  1  0
 20 24  2  0
 20 26  1  0
 21 23  1  0
 21 29  1  0
 21 55  1  0
 22 27  1  0
 22 56  1  0
 22 57  1  0
 23 58  1  0
 23 59  1  0
 24 60  1  0
 25 61  1  0
 25 62  1  0
 25 63  1  0
 26 28  1  0
 26 64  1  0
 26 65  1  0
 27 28  1  0
 27 66  1  0
 27 67  1  0
 28 68  1  0
 29 69  1  0
 29 70  1  0
 29 71  1  0
M  END
> <Name>
65727

> <OBJECTID>
9223372114167529486

> <PUBCHEM_COMPOUND_CID>
65727

> <PUBCHEM_CONFORMER_RMSD>
0.8

> <PUBCHEM_CONFORMER_DIVERSEORDER>
1

> <PUBCHEM_MMFF94_PARTIAL_CHARGES>
13
1 -0.68
12 0.27
14 0.14
16 0.14
18 0.27
2 -0.81
20 -0.28
24 -0.29
26 0.14
28 0.28
6 0.27
60 0.15
72 0.4

> <PUBCHEM_EFFECTIVE_ROTOR_COUNT>
2.6

> <PUBCHEM_PHARMACOPHORE_FEATURES>
9
1 1 acceptor
1 1 donor
1 2 cation
5 2 4 6 9 12 rings
5 3 4 5 6 8 rings
6 14 20 22 26 27 28 rings
6 2 12 17 18 21 23 rings
6 3 5 7 10 11 13 rings
6 7 10 14 16 20 24 rings

> <PUBCHEM_HEAVY_ATOM_COUNT>
29

> <PUBCHEM_ATOM_DEF_STEREO_COUNT>
11

> <PUBCHEM_ATOM_UDEF_STEREO_COUNT>
0

> <PUBCHEM_BOND_DEF_STEREO_COUNT>
0

> <PUBCHEM_BOND_UDEF_STEREO_COUNT>
0

> <PUBCHEM_ISOTOPIC_ATOM_COUNT>
0

> <PUBCHEM_COMPONENT_COUNT>
1

> <PUBCHEM_CACTVS_TAUTO_COUNT>
1

> <PUBCHEM_CONFORMER_ID>
000100BF00000001

> <PUBCHEM_MMFF94_ENERGY>
85.93

> <PUBCHEM_FEATURE_SELFOVERLAP>
46.106

> <PUBCHEM_SHAPE_FINGERPRINT>
10 15 17967816050773926833
10165383 225 18040722472626803750
10411042 1 17904479603044024770
10595046 47 18411136926594182697
10906281 52 18130239193804698139
11135609 187 18410011069800952856
11524674 6 15482669096286716573
11578080 2 13624683625764403908
11796584 16 14404895912454887782
12107183 9 17618503186213601208
12166972 35 18040157309705142757
12236239 1 18187082836653296707
12403259 415 18040709226145757583
12596602 18 17821726130791965435
12730499 353 18334017194503234954
12788726 201 17703232814712117465
13533116 47 18262234417810426098
13782708 43 14404320924124886957
14294032 229 15768395794373151763
14341114 176 18408606942218188443
14394314 77 18411143515729142913
14528608 73 18410575093975830012
14790565 3 18339082575203763808
14840074 17 18060135457746592221
14856354 85 16415482683785854533
14933364 13 18409451384016979117
15183329 4 16702310061071689020
15196674 1 18411134706465323371
15276724 80 18337953385954008805
15685185 35 17972888244206360588
15840311 113 18260834803874397476
15961568 22 18334579040101863988
16993427 108 16809806930294838322
18335252 98 18333737940108915075
18608769 82 18336549438316974059
18681886 176 18340763827246087624
19611394 137 17896896549754256683
21033648 29 18339634650437116200
21267235 1 18342179925334669955
21521721 280 18410017628347389155
221357 26 18131351903904099624
23522609 53 17987540176595239833
23559900 14 18271518805485051464
23569914 2 17318962357207383684
23569943 247 12894255940345614692
255183 451 17842285766267859726
3004659 81 18410292476564263962
335352 9 18413951693467195132
34797466 226 18202290186514724820
350125 39 18411981364652173481
3545911 37 18407478860024880240
4073 2 18186806910969914635
4258327 124 17096949042651344740
4325135 7 18410576180001325181
4340502 62 16950280706924169002
474 4 17822296829430890548
5104073 3 18341327786880535147
5265222 85 18059574749344021574
53794403 172 18118686762840589604
5486654 2 18413670223349863083
59682541 35 18041292019628801993
59755656 215 18060423486606000039
59755656 520 18040994055587566851
6328613 192 18413111683842785489

> <PUBCHEM_SHAPE_MULTIPOLES>
585.96
17.51
2.65
0.99
3.67
0.18
-0.32
-7.33
-1.86
-2.68
0.3
0.06
0.16
-0.68

> <PUBCHEM_SHAPE_SELFOVERLAP>
1260.034

> <PUBCHEM_SHAPE_VOLUME>
324.2

> <PUBCHEM_COORDINATE_TYPE>
2
5
10

$$$$
68051
  SciTegic09112316443D

 68 68  0  0  0  0            999 V2000
   -2.0540    2.1520   -1.3850 O   0  0
    1.7220    1.4570    1.3660 O   0  0
   -0.5870   -2.1690   -0.4090 O   0  0
    1.3580   -2.4780    1.1550 O   0  0
   -0.0580    1.9830   -0.0010 C   0  0
    0.7890    2.8490   -0.9640 C   0  0
   -0.7090    2.8560    1.1020 C   0  0
   -1.1610    1.3220   -0.7800 C   0  0
    0.8730    0.9610    0.6560 C   0  0
   -1.2570   -0.0150   -0.8360 C   0  0
    0.7060   -0.3850    0.4750 C   0  0
   -0.3650   -0.8320   -0.2340 C   0  0
    1.4900    1.9800   -1.9810 C   0  0
   -1.5270    1.9960    2.0360 C   0  0
   -2.4140   -0.6180   -1.6240 C   0  0
    1.5820   -1.2900    1.0350 C   0  0
    3.0080   -0.9030    1.4640 C   0  0
    4.0850   -2.0070    1.3560 C   0  0
    2.8030    1.6950   -2.0620 C   0  0
   -2.8670    1.8950    2.1090 C   0  0
   -3.3960   -1.2260   -0.6550 C   0  0
    4.2660   -2.4780   -0.0980 C   0  0
    5.4290   -1.4940    1.9050 C   0  0
    3.8720    2.2240   -1.1370 C   0  0
    3.3290    0.7800   -3.1450 C   0  0
   -3.5160    0.9280    3.0740 C   0  0
   -3.8520    2.6750    1.2720 C   0  0
   -3.7890   -2.5090   -0.5730 C   0  0
   -3.3340   -3.6260   -1.4820 C   0  0
   -4.7630   -2.9490    0.4980 C   0  0
    1.5050    3.4730   -0.3890 H   0  0
    0.1480    3.5820   -1.5070 H   0  0
   -1.3110    3.6700    0.6470 H   0  0
    0.0580    3.3930    1.7060 H   0  0
    0.8190    1.5150   -2.7240 H   0  0
   -0.9310    1.3510    2.7040 H   0  0
   -2.9710    0.1300   -2.2310 H   0  0
   -2.0130   -1.3250   -2.3800 H   0  0
    2.9610   -0.5620    2.5260 H   0  0
    3.3950   -0.0900    0.8070 H   0  0
    3.7880   -2.8830    1.9860 H   0  0
   -2.0540    3.0200   -0.9530 H   0  0
   -3.8140   -0.5100    0.0740 H   0  0
   -1.3910   -2.3290   -0.9230 H   0  0
    3.3240   -2.8880   -0.5260 H   0  0
    5.0340   -3.2820   -0.1660 H   0  0
    4.5950   -1.6400   -0.7530 H   0  0
    6.2120   -2.2850    1.8610 H   0  0
    5.7980   -0.6200    1.3210 H   0  0
    5.3380   -1.1770    2.9690 H   0  0
    4.5750    2.8720   -1.7070 H   0  0
    3.4940    2.8190   -0.2810 H   0  0
    4.4570    1.3800   -0.7060 H   0  0
    4.0820    1.3140   -3.7670 H   0  0
    3.8170   -0.1110   -2.6880 H   0  0
    2.5330    0.4080   -3.8270 H   0  0
   -2.7800    0.3440    3.6700 H   0  0
   -4.1460    0.1960    2.5180 H   0  0
   -4.1660    1.4780    3.7910 H   0  0
   -4.4350    1.9790    0.6270 H   0  0
   -4.5660    3.2160    1.9340 H   0  0
   -3.3960    3.4370    0.6090 H   0  0
   -4.2170   -4.1150   -1.9540 H   0  0
   -2.7860   -4.3940   -0.8910 H   0  0
   -2.6670   -3.3080   -2.3090 H   0  0
   -5.6810   -3.3740    0.0330 H   0  0
   -4.2970   -3.7320    1.1380 H   0  0
   -5.0810   -2.1190    1.1660 H   0  0
  1  8  1  0
  1 42  1  0
  2  9  2  0
  3 12  1  0
  3 44  1  0
  4 16  2  0
  5  6  1  0
  5  7  1  0
  5  8  1  0
  5  9  1  0
  6 13  1  0
  6 31  1  0
  6 32  1  0
  7 14  1  0
  7 33  1  0
  7 34  1  0
  8 10  2  0
  9 11  1  0
 10 12  1  0
 10 15  1  0
 11 12  2  0
 11 16  1  0
 13 19  2  0
 13 35  1  0
 14 20  2  0
 14 36  1  0
 15 21  1  0
 15 37  1  0
 15 38  1  0
 16 17  1  0
 17 18  1  0
 17 39  1  0
 17 40  1  0
 18 22  1  0
 18 23  1  0
 18 41  1  0
 19 24  1  0
 19 25  1  0
 20 26  1  0
 20 27  1  0
 21 28  2  0
 21 43  1  0
 22 45  1  0
 22 46  1  0
 22 47  1  0
 23 48  1  0
 23 49  1  0
 23 50  1  0
 24 51  1  0
 24 52  1  0
 24 53  1  0
 25 54  1  0
 25 55  1  0
 25 56  1  0
 26 57  1  0
 26 58  1  0
 26 59  1  0
 27 60  1  0
 27 61  1  0
 27 62  1  0
 28 29  1  0
 28 30  1  0
 29 63  1  0
 29 64  1  0
 29 65  1  0
 30 66  1  0
 30 67  1  0
 30 68  1  0
M  END
> <Name>
68051

> <OBJECTID>
9223372118462496782

$$$$
75324
  SciTegic09112316443D

 28 29  0  0  0  0            999 V2000
    3.7234    0.0589    0.0043 O   0  0
   -0.8801    2.6862   -0.0150 O   0  0
   -3.1975   -1.3647   -0.0080 O   0  0
    1.6403   -1.1099    0.0023 N   0  0
    1.6099    1.1423   -0.0007 N   0  0
   -0.8641   -1.4034   -0.0028 N   0  0
   -2.0736    0.6718    0.0051 N   0  0
    0.3150   -0.6809   -0.0004 C   0  0
    0.3212    0.6612   -0.0015 C   0  0
    2.5009    0.0364    0.0020 C   0  0
   -0.9101    1.4593   -0.0040 C   0  0
   -2.1237   -0.7524   -0.0019 C   0  0
    2.1540   -2.4555    0.0072 C   0  0
    1.9913    2.5325   -0.0024 C   0  0
   -0.8564   -2.8604   -0.0075 C   0  0
   -3.3506    1.3785    0.0234 C   0  0
    3.2482   -2.4413    0.0109 H   0  0
    1.8277   -2.9788   -0.8940 H   0  0
    1.8217   -2.9743    0.9089 H   0  0
    1.6026    3.0163   -0.9029 H   0  0
    3.0816    2.6193    0.0007 H   0  0
    1.5971    3.0200    0.8936 H   0  0
   -0.3570   -3.2198   -0.9105 H   0  0
   -1.8698   -3.2720   -0.0116 H   0  0
   -0.3620   -3.2258    0.8957 H   0  0
   -3.9000    1.1257   -0.8891 H   0  0
   -3.2327    2.4628    0.0849 H   0  0
   -3.9345    1.0302    0.8815 H   0  0
  1 10  2  0
  2 11  2  0
  3 12  2  0
  4  8  1  0
  4 10  1  0
  4 13  1  0
  5  9  1  0
  5 10  1  0
  5 14  1  0
  6  8  1  0
  6 12  1  0
  6 15  1  0
  7 11  1  0
  7 12  1  0
  7 16  1  0
  8  9  2  0
  9 11  1  0
 13 17  1  0
 13 18  1  0
 13 19  1  0
 14 20  1  0
 14 21  1  0
 14 22  1  0
 15 23  1  0
 15 24  1  0
 15 25  1  0
 16 26  1  0
 16 27  1  0
 16 28  1  0
M  END
> <Name>
75324

> <OBJECTID>
9223372122757464078

> <PUBCHEM_COMPOUND_CID>
75324

> <PUBCHEM_CONFORMER_RMSD>
0.4

> <PUBCHEM_CONFORMER_DIVERSEORDER>
1

> <PUBCHEM_MMFF94_PARTIAL_CHARGES>
16
1 -0.57
10 0.69
11 0.62
12 0.69
13 0.3
14 0.3
15 0.3
16 0.3
2 -0.57
3 -0.57
4 -0.47
5 -0.47
6 -0.47
7 -0.42
8 0.22
9 0.12

> <PUBCHEM_EFFECTIVE_ROTOR_COUNT>
0

> <PUBCHEM_PHARMACOPHORE_FEATURES>
5
1 1 acceptor
1 2 acceptor
1 3 acceptor
5 4 5 8 9 10 rings
6 6 7 8 9 11 12 rings

> <PUBCHEM_HEAVY_ATOM_COUNT>
16

> <PUBCHEM_ATOM_DEF_STEREO_COUNT>
0

> <PUBCHEM_ATOM_UDEF_STEREO_COUNT>
0

> <PUBCHEM_BOND_DEF_STEREO_COUNT>
0

> <PUBCHEM_BOND_UDEF_STEREO_COUNT>
0

> <PUBCHEM_ISOTOPIC_ATOM_COUNT>
0

> <PUBCHEM_COMPONENT_COUNT>
1

> <PUBCHEM_CACTVS_TAUTO_COUNT>
1

> <PUBCHEM_CONFORMER_ID>
0001263C00000001

> <PUBCHEM_MMFF94_ENERGY>
49.325

> <PUBCHEM_FEATURE_SELFOVERLAP>
25.464

> <PUBCHEM_SHAPE_FINGERPRINT>
10967382 1 18266740177578856167
11471102 20 18193833752502202725
12382932 28 18412261735515944344
13140716 1 18194401315028655306
13380535 76 18411978035931069766
13897977 150 18410852136187666509
15442244 35 18267583494634428666
16945 1 18410573998273742854
193761 8 18266740370878758240
20510252 161 18272090508544612905
21501502 16 18410292523070191886
2334 1 16897365910920497859
23402539 116 18271515498607971375
23463225 33 18408886230518397193
23552423 10 18335985345416448253
23559900 14 18343026597608831852
2748010 2 18410012135099995855
528886 8 18411131403429731417
53812653 166 18342452617314218048
7364860 26 18341894091282456976
8809292 202 18189338033902521610

> <PUBCHEM_SHAPE_MULTIPOLES>
291.74
4.67
3.14
0.58
0.23
0.34
0
-0.3
0.02
-0.15
-0.01
0
0.01
-0.01

> <PUBCHEM_SHAPE_SELFOVERLAP>
621.736

> <PUBCHEM_SHAPE_VOLUME>
162.1

> <PUBCHEM_COORDINATE_TYPE>
2
5
10

$$$$
77547
  SciTegic09112316443D

 23 23  0  0  0  0            999 V2000
    2.3884   -0.2970   -0.1384 O   0  0
   -3.2192    1.5258   -0.4824 O   0  0
   -3.7834   -1.1607   -0.0495 O   0  0
    1.8487    1.8156    0.5723 O   0  0
    0.1309    0.2088    0.1541 C   0  0
   -0.9021    1.1012   -0.1328 C   0  0
   -0.1526   -1.1395    0.3719 C   0  0
   -2.2186    0.6452   -0.2019 C   0  0
   -2.5019   -0.7032    0.0159 C   0  0
   -1.4689   -1.5956    0.3028 C   0  0
    1.5033    0.6843    0.2279 C   0  0
    3.7763    0.0551   -0.1042 C   0  0
    4.5990   -1.1400   -0.5356 C   0  0
   -0.6911    2.1539   -0.3063 H   0  0
    0.6293   -1.8559    0.6101 H   0  0
   -1.6763   -2.6480    0.4773 H   0  0
    3.9560    0.8942   -0.7853 H   0  0
    4.0529    0.3471    0.9149 H   0  0
    5.6671   -0.9058   -0.5207 H   0  0
    4.4147   -1.9934    0.1253 H   0  0
    4.3200   -1.4551   -1.5465 H   0  0
   -4.0618    1.0392   -0.4904 H   0  0
   -3.7877   -2.1170    0.1277 H   0  0
  1 11  1  0
  1 12  1  0
  2  8  1  0
  2 22  1  0
  3  9  1  0
  3 23  1  0
  4 11  2  0
  5  6  2  0
  5  7  1  0
  5 11  1  0
  6  8  1  0
  6 14  1  0
  7 10  2  0
  7 15  1  0
  8  9  2  0
  9 10  1  0
 10 16  1  0
 12 13  1  0
 12 17  1  0
 12 18  1  0
 13 19  1  0
 13 20  1  0
 13 21  1  0
M  END
> <Name>
77547

> <OBJECTID>
9223372127052431374

> <PUBCHEM_COMPOUND_CID>
77547

> <PUBCHEM_CONFORMER_RMSD>
0.6

> <PUBCHEM_CONFORMER_DIVERSEORDER>
1
3
6
5
15
8
13
7
4
2
12
11
10
18
14
16
17
9

> <PUBCHEM_MMFF94_PARTIAL_CHARGES>
17
1 -0.43
10 -0.15
11 0.63
12 0.28
14 0.15
15 0.15
16 0.15
2 -0.53
22 0.45
23 0.45
3 -0.53
4 -0.57
5 0.09
6 -0.15
7 -0.15
8 0.08
9 0.08

> <PUBCHEM_EFFECTIVE_ROTOR_COUNT>
3

> <PUBCHEM_PHARMACOPHORE_FEATURES>
4
1 2 donor
1 3 donor
1 4 acceptor
6 5 6 7 8 9 10 rings

> <PUBCHEM_HEAVY_ATOM_COUNT>
13

> <PUBCHEM_ATOM_DEF_STEREO_COUNT>
0

> <PUBCHEM_ATOM_UDEF_STEREO_COUNT>
0

> <PUBCHEM_BOND_DEF_STEREO_COUNT>
0

> <PUBCHEM_BOND_UDEF_STEREO_COUNT>
0

> <PUBCHEM_ISOTOPIC_ATOM_COUNT>
0

> <PUBCHEM_COMPONENT_COUNT>
1

> <PUBCHEM_CACTVS_TAUTO_COUNT>
12

> <PUBCHEM_CONFORMER_ID>
00012EEB00000001

> <PUBCHEM_MMFF94_ENERGY>
29.7516

> <PUBCHEM_FEATURE_SELFOVERLAP>
20.301

> <PUBCHEM_SHAPE_FINGERPRINT>
10465860 250 18341889659203190384
10608611 8 18339355374547451272
10751810 167 18040723558483356854
12032990 46 18336550529096014755
12186901 62 17894909611962623047
12716758 59 18336260236371831123
12932764 1 17385710400930069944
13690532 89 18412545409779907682
14325111 11 18409164428482780640
14911166 2 18338793420857377861
14993402 34 17022620896482068782
15219456 202 18271238426009616712
15775835 57 18041560234875664561
16945 1 18188764076084732811
17804303 29 18410298016333369964
17870717 6 18198080109506066174
18186145 218 18408877425825280648
1986462 14 18408324371528958262
200 152 17561358491827012527
20201158 50 18272374152838510374
20645476 183 16877941676226859475
20871999 31 18260276248025648606
23402539 116 18341605993081177837
23403322 49 18270688550316667062
23552423 10 18042684077619688514
23559900 14 18340765958615060706
2748010 2 18337099185229508737
6333449 129 18410008832312414693
69090 78 18201432640211875751
7364860 26 18196373843437612088
8809292 202 18335425715631470210

> <PUBCHEM_SHAPE_MULTIPOLES>
244.06
6.99
1.67
0.68
5.26
0.11
0
-1.59
-1.33
-0.52
0.08
0.1
0.01
0.57

> <PUBCHEM_SHAPE_SELFOVERLAP>
506.833

> <PUBCHEM_SHAPE_VOLUME>
139.9

> <PUBCHEM_COORDINATE_TYPE>
2
5
10

$$$$
83412
  SciTegic09112316443D

 27 28  0  0  1  0            999 V2000
    2.7487   -0.3571    0.0153 O   0  0
   -3.4026    1.2720    0.0158 O   0  0
   -0.7612   -2.6630   -0.2124 O   0  0
    1.7797   -2.3856    0.2849 O   0  0
    1.4794    1.6876    0.3428 C   0  0
    2.5934    1.0067   -0.4385 C   0  0  1  0  0  0
    0.2358    0.8689    0.1719 C   0  0
    0.3411   -0.5226    0.0552 C   0  0
    3.9258    1.7140   -0.2359 C   0  0
   -1.0290    1.4670    0.1681 C   0  0
    1.6691   -1.1779    0.1200 C   0  0
   -0.8085   -1.3073   -0.0817 C   0  0
   -2.1750    0.6839    0.0269 C   0  0
   -2.0644   -0.6999   -0.1003 C   0  0
   -4.5323    0.4133   -0.1320 C   0  0
    1.3311    2.7091   -0.0250 H   0  0
    1.7161    1.7322    1.4127 H   0  0
    2.3673    0.9764   -1.5124 H   0  0
    4.2201    1.7029    0.8194 H   0  0
    4.7189    1.1980   -0.7877 H   0  0
    3.8810    2.7523   -0.5781 H   0  0
   -1.1228    2.5452    0.2726 H   0  0
   -2.9197   -1.3584   -0.2136 H   0  0
    0.1556   -2.9609   -0.3190 H   0  0
   -4.5216   -0.1039   -1.0974 H   0  0
   -5.4242    1.0484   -0.1205 H   0  0
   -4.6239   -0.2804    0.7108 H   0  0
  1  6  1  0
  1 11  1  0
  2 13  1  0
  2 15  1  0
  3 12  1  0
  3 24  1  0
  4 11  2  0
  5  6  1  0
  5  7  1  0
  5 16  1  0
  5 17  1  0
  6  9  1  0
  6 18  1  0
  7  8  2  0
  7 10  1  0
  8 11  1  0
  8 12  1  0
  9 19  1  0
  9 20  1  0
  9 21  1  0
 10 13  2  0
 10 22  1  0
 12 14  2  0
 13 14  1  0
 14 23  1  0
 15 25  1  0
 15 26  1  0
 15 27  1  0
M  END
> <Name>
83412

> <OBJECTID>
9223372131347398670

> <PUBCHEM_COMPOUND_CID>
83412

> <PUBCHEM_CONFORMER_RMSD>
0.6

> <PUBCHEM_CONFORMER_DIVERSEORDER>
1
2

> <PUBCHEM_MMFF94_PARTIAL_CHARGES>
17
1 -0.43
10 -0.15
11 0.63
12 0.08
13 0.08
14 -0.15
15 0.28
2 -0.36
22 0.15
23 0.15
24 0.45
3 -0.53
4 -0.57
5 0.14
6 0.28
7 -0.14
8 0.09

> <PUBCHEM_EFFECTIVE_ROTOR_COUNT>
1.6

> <PUBCHEM_PHARMACOPHORE_FEATURES>
5
1 2 acceptor
1 3 donor
1 4 acceptor
6 1 5 6 7 8 11 rings
6 7 8 10 12 13 14 rings

> <PUBCHEM_HEAVY_ATOM_COUNT>
15

> <PUBCHEM_ATOM_DEF_STEREO_COUNT>
1

> <PUBCHEM_ATOM_UDEF_STEREO_COUNT>
0

> <PUBCHEM_BOND_DEF_STEREO_COUNT>
0

> <PUBCHEM_BOND_UDEF_STEREO_COUNT>
0

> <PUBCHEM_ISOTOPIC_ATOM_COUNT>
0

> <PUBCHEM_COMPONENT_COUNT>
1

> <PUBCHEM_CACTVS_TAUTO_COUNT>
13

> <PUBCHEM_CONFORMER_ID>
000145D400000001

> <PUBCHEM_MMFF94_ENERGY>
51.9313

> <PUBCHEM_FEATURE_SELFOVERLAP>
25.398

> <PUBCHEM_SHAPE_FINGERPRINT>
10608611 8 18262515892971577445
10967382 1 18410855438658619569
10980938 120 18410292488747526297
11471102 20 18410571773412339221
11680986 33 18335994098665662954
12644460 14 18261117322364481256
13140716 1 18266733769799192672
13380535 21 18409737286920368667
13380535 76 18410291432248894402
13897977 150 18410291423790874101
14251717 144 18339636742444839455
14325111 11 18410575059315580105
14897335 6 18410853286985609764
15196674 1 18410856585414881111
15219456 202 18261119573359724313
15442244 35 18123751946119627393
15536298 74 18343021064815040132
15775835 57 18410296929728022508
16945 1 18339919428127658336
18186145 218 18341335474824722829
193761 8 17763180641417216457
20510252 161 17838059556453661976
20559304 39 18338514110728683714
20645476 183 17969800737475020262
20645477 70 18337666396386268559
21501502 16 18410284847958684006
22344851 262 18041844024845269540
2334 1 18411416232823437835
23402539 116 18272081742500647853
23402655 69 18342731897947963781
23463225 33 18266176132588219947
23559900 14 18200599215663919892
25 1 18409445894832581532
2748010 2 18410581699081721247
3071541 37 18335424542957321948
449060 62 18412547600160435729
528862 383 18334290924988876218
528886 8 18410852200401153504
53812653 166 18342454880530062832
63268167 104 18412547574311458929
69090 78 18411696612504340773
7364860 26 18341613660104339470

> <PUBCHEM_SHAPE_MULTIPOLES>
285.22
6
2.35
0.63
2.22
1.27
0
-3
-0.57
-0.71
0.06
-0.06
-0.04
-0.23

> <PUBCHEM_SHAPE_SELFOVERLAP>
613.011

> <PUBCHEM_SHAPE_VOLUME>
157.7

> <PUBCHEM_COORDINATE_TYPE>
2
5
10

$$$$
88708
  SciTegic09112316443D

 45 47  0  0  1  0            999 V2000
    2.2621   -0.8557    0.1080 O   0  0
    0.1953    0.0196    0.7452 O   0  0
    4.2056    2.5933    1.2011 O   0  0
    1.3045    2.6224    0.6874 O   0  0
    5.5210    0.6889   -0.5306 O   0  0
   -0.6987   -0.7794   -1.2939 O   0  0
    3.4423   -2.9226   -1.2672 O   0  0
   -4.7251    1.6454   -0.2474 O   0  0
   -3.8877    1.6806   -2.3401 O   0  0
    3.5111    1.7231    0.3061 C   0  0  2  0  0  0
    2.1068    1.4525    0.8463 C   0  0  2  0  0  0
    4.3162    0.4290    0.1850 C   0  0  1  0  0  0
    3.5115   -0.6442   -0.5520 C   0  0  1  0  0  0
    1.4335    0.3043    0.0948 C   0  0  1  0  0  0
   -0.4953   -1.0547    0.1011 C   0  0  2  0  0  0
   -1.8020   -1.3384    0.8698 C   0  0  1  0  0  0
    4.2473   -1.9800   -0.5827 C   0  0
   -2.8158   -0.2564    0.5840 C   0  0
   -2.7664    0.3374   -0.7275 C   0  0
   -2.3487   -2.6963    0.5330 C   0  0
   -1.7708    0.0315   -1.5726 C   0  0
   -3.7154    0.1763    1.4731 C   0  0
   -4.7046    1.2386    1.1435 C   0  0
   -3.8218    1.2669   -1.1876 C   0  0
   -2.5052   -3.6819    1.4231 C   0  0
    3.4599    2.2461   -0.6568 H   0  0
    2.1477    1.2399    1.9213 H   0  0
    4.5981    0.0802    1.1861 H   0  0
    1.2338    0.6109   -0.9403 H   0  0
    3.3107   -0.3440   -1.5895 H   0  0
    0.1340   -1.9519    0.1597 H   0  0
   -1.5626   -1.3060    1.9431 H   0  0
    4.4245   -2.3635    0.4277 H   0  0
    5.2059   -1.9027   -1.1037 H   0  0
    5.0965    2.7342    0.8373 H   0  0
    1.2560    2.8285   -0.2618 H   0  0
    5.2809    0.9920   -1.4229 H   0  0
   -2.6276   -2.8928   -0.5001 H   0  0
   -1.6969    0.3842   -2.5929 H   0  0
   -3.7484   -0.2500    2.4715 H   0  0
    2.5921   -2.9791   -0.7984 H   0  0
   -5.7126    0.8832    1.3805 H   0  0
   -4.5139    2.1328    1.7453 H   0  0
   -2.9027   -4.6426    1.1144 H   0  0
   -2.2429   -3.5518    2.4671 H   0  0
  1 13  1  0
  1 14  1  0
  2 14  1  0
  2 15  1  0
  3 10  1  0
  3 35  1  0
  4 11  1  0
  4 36  1  0
  5 12  1  0
  5 37  1  0
  6 15  1  0
  6 21  1  0
  7 17  1  0
  7 41  1  0
  8 23  1  0
  8 24  1  0
  9 24  2  0
 10 11  1  0
 10 12  1  0
 10 26  1  0
 11 14  1  0
 11 27  1  0
 12 13  1  0
 12 28  1  0
 13 17  1  0
 13 30  1  0
 14 29  1  0
 15 16  1  0
 15 31  1  0
 16 18  1  0
 16 20  1  0
 16 32  1  0
 17 33  1  0
 17 34  1  0
 18 19  1  0
 18 22  2  0
 19 21  2  0
 19 24  1  0
 20 25  2  0
 20 38  1  0
 21 39  1  0
 22 23  1  0
 22 40  1  0
 23 42  1  0
 23 43  1  0
 25 44  1  0
 25 45  1  0
M  END
> <Name>
88708

> <OBJECTID>
9223372135642365966

> <PUBCHEM_COMPOUND_CID>
88708

> <PUBCHEM_CONFORMER_RMSD>
0.8

> <PUBCHEM_CONFORMER_DIVERSEORDER>
1
64
69
33
26
12
36
43
30
39
35
66
67
71
54
10
20
51
40
65
25
22
27
24
63
72
37
14
70
18
9
47
45
50
57
62
46
59
21
49
55
58
2
48
6
41
53
31
68
52
4
60
7
44
32
23
56
3
16
28
42
15
38
5
29
34
8
11
17
19
61
13

> <PUBCHEM_MMFF94_PARTIAL_CHARGES>
34
1 -0.56
10 0.28
11 0.28
12 0.28
13 0.28
14 0.56
15 0.56
16 0.28
17 0.28
18 -0.14
19 0.01
2 -0.56
20 -0.29
21 -0.07
22 -0.29
23 0.42
24 0.71
25 -0.3
3 -0.68
35 0.4
36 0.4
37 0.4
38 0.15
39 0.15
4 -0.68
40 0.15
41 0.4
44 0.15
45 0.15
5 -0.68
6 -0.36
7 -0.68
8 -0.43
9 -0.57

> <PUBCHEM_EFFECTIVE_ROTOR_COUNT>
6.2

> <PUBCHEM_PHARMACOPHORE_FEATURES>
16
1 1 acceptor
1 2 acceptor
1 25 hydrophobe
1 3 acceptor
1 3 donor
1 4 acceptor
1 4 donor
1 5 acceptor
1 5 donor
1 6 acceptor
1 7 acceptor
1 7 donor
1 9 acceptor
6 1 10 11 12 13 14 rings
6 6 15 16 18 19 21 rings
6 8 18 19 22 23 24 rings

> <PUBCHEM_HEAVY_ATOM_COUNT>
25

> <PUBCHEM_ATOM_DEF_STEREO_COUNT>
7

> <PUBCHEM_ATOM_UDEF_STEREO_COUNT>
0

> <PUBCHEM_BOND_DEF_STEREO_COUNT>
0

> <PUBCHEM_BOND_UDEF_STEREO_COUNT>
0

> <PUBCHEM_ISOTOPIC_ATOM_COUNT>
0

> <PUBCHEM_COMPONENT_COUNT>
1

> <PUBCHEM_CACTVS_TAUTO_COUNT>
1

> <PUBCHEM_CONFORMER_ID>
00015A8400000001

> <PUBCHEM_MMFF94_ENERGY>
64.8137

> <PUBCHEM_FEATURE_SELFOVERLAP>
81.326

> <PUBCHEM_SHAPE_FINGERPRINT>
10165383 225 18260556584925858897
10369192 42 17908153414646650604
11089746 13 16917344845025846120
11370993 144 18411430492077950571
11405975 8 18407758149264281178
11552529 35 18128542758932378507
12236239 1 16988842756873381516
12403259 415 18187646848038822077
12633257 1 18335696118251044266
12788726 201 18055915394843621800
12969540 114 17969202492044687671
13544592 145 18263086535185026222
13583140 156 18271529804927723886
14251757 17 18408887304450242624
14341114 328 13696162751551859973
14787075 74 13191212066528776727
17349148 13 15554447392310601366
17818456 19 16054644781234889922
18186145 218 18408882914803657819
20511986 3 16773214229179464744
20645477 56 18333452049425554915
20645477 70 17846785117844539054
21033648 144 18342170089791224348
21033648 29 18187636969261048789
23557571 272 18187367683184719974
23559900 14 18413390917600902682
2838139 119 17914335676625021505
3729539 64 17757280283739238735
4015057 19 18272645731862346458
474 4 18059576841552107681
5104073 3 18338512062445931272
57724786 102 18341902874079861344
6287921 2 17898020271849351420
633830 44 18270957921964338797
7399639 24 17692247851921485834
81228 2 17824544312686736851
9709674 26 18411136978113035422
9981440 41 16982046843232748385

> <PUBCHEM_SHAPE_MULTIPOLES>
461.66
10.71
3.16
1.52
5.48
2.15
0.45
-3.43
0.29
-0.15
-0.67
-1.32
-0.25
2.74

> <PUBCHEM_SHAPE_SELFOVERLAP>
977.279

> <PUBCHEM_SHAPE_VOLUME>
251.1

> <PUBCHEM_COORDINATE_TYPE>
2
5
10

$$$$
89594
  SciTegic09112316443D

 26 27  0  0  1  0            999 V2000
   -1.7023   -0.7962   -0.0339 N   0  0
    2.2968   -0.7091    1.2171 N   0  0
   -0.8846    0.3095   -0.5713 C   0  0  1  0  0  0
   -1.4955    1.5824    0.0436 C   0  0
   -2.6857    1.0984    0.8596 C   0  0
   -3.0281   -0.2382    0.2329 C   0  0
    0.5872    0.1544   -0.2513 C   0  0
   -1.7618   -1.9503   -0.9217 C   0  0
    1.5569    0.7025   -1.0791 C   0  0
    1.0008   -0.5357    0.8738 C   0  0
    2.9009    0.5451   -0.7593 C   0  0
    3.2156   -0.1627    0.3895 C   0  0
   -1.0084    0.3665   -1.6624 H   0  0
   -1.8454    2.2456   -0.7571 H   0  0
   -0.8018    2.1528    0.6709 H   0  0
   -2.3896    0.9650    1.9076 H   0  0
   -3.5220    1.8029    0.8293 H   0  0
   -3.6094   -0.8662    0.9151 H   0  0
   -3.6021   -0.0880   -0.6903 H   0  0
   -2.3643   -2.7460   -0.4698 H   0  0
   -0.7627   -2.3668   -1.0885 H   0  0
   -2.1975   -1.7036   -1.8965 H   0  0
    1.2798    1.2544   -1.9728 H   0  0
    0.3027   -0.9778    1.5770 H   0  0
    3.6775    0.9638   -1.3890 H   0  0
    4.2491   -0.3134    0.6833 H   0  0
  1  3  1  0
  1  6  1  0
  1  8  1  0
  2 10  1  0
  2 12  2  0
  3  4  1  0
  3  7  1  0
  3 13  1  0
  4  5  1  0
  4 14  1  0
  4 15  1  0
  5  6  1  0
  5 16  1  0
  5 17  1  0
  6 18  1  0
  6 19  1  0
  7  9  1  0
  7 10  2  0
  8 20  1  0
  8 21  1  0
  8 22  1  0
  9 11  2  0
  9 23  1  0
 10 24  1  0
 11 12  1  0
 11 25  1  0
 12 26  1  0
M  END
> <Name>
89594

> <OBJECTID>
9223372139937333262

> <PUBCHEM_COMPOUND_CID>
89594

> <PUBCHEM_CONFORMER_RMSD>
0.6

> <PUBCHEM_CONFORMER_DIVERSEORDER>
3
8
5
2
1
4
6
7

> <PUBCHEM_MMFF94_PARTIAL_CHARGES>
14
1 -0.81
10 0.16
11 -0.15
12 0.16
2 -0.62
23 0.15
24 0.15
25 0.15
26 0.15
3 0.41
6 0.27
7 -0.14
8 0.27
9 -0.15

> <PUBCHEM_EFFECTIVE_ROTOR_COUNT>
2

> <PUBCHEM_PHARMACOPHORE_FEATURES>
4
1 1 cation
1 2 acceptor
5 1 3 4 5 6 rings
6 2 7 9 10 11 12 rings

> <PUBCHEM_HEAVY_ATOM_COUNT>
12

> <PUBCHEM_ATOM_DEF_STEREO_COUNT>
1

> <PUBCHEM_ATOM_UDEF_STEREO_COUNT>
0

> <PUBCHEM_BOND_DEF_STEREO_COUNT>
0

> <PUBCHEM_BOND_UDEF_STEREO_COUNT>
0

> <PUBCHEM_ISOTOPIC_ATOM_COUNT>
0

> <PUBCHEM_COMPONENT_COUNT>
1

> <PUBCHEM_CACTVS_TAUTO_COUNT>
1

> <PUBCHEM_CONFORMER_ID>
00015DFA00000003

> <PUBCHEM_MMFF94_ENERGY>
28.7208

> <PUBCHEM_FEATURE_SELFOVERLAP>
20.297

> <PUBCHEM_SHAPE_FINGERPRINT>
10857977 72 17775003526630995877
11031198 65 15195570112767051744
124424 183 16630243602600998766
12716758 59 17917438587693076950
12932764 1 18260546727622590676
13024252 1 16226046682879912029
13538477 17 18408885174204472783
13581323 91 18343582940815744751
14144814 61 18408043996021716112
15669948 3 18342177807847078535
15775835 57 18335709325059071392
16945 1 18272369771797619637
17844478 74 16200440186260247257
19422 9 18261119568669312802
20645464 45 17275099513985106371
20871998 184 18059580243045283455
21061003 4 15791740684565994036
21930827 45 17775288257134836167
22445834 79 18114461171538339858
23236772 104 18187931711079941641
23402539 116 17917418822849705989
23552423 10 18046347710651554349
2748010 2 17832141619578997365
276578 36 17986406502870703379
3248919 1 18131066030632652660
369184 2 17385724686165187853
63268167 104 17603863420775935508
77492 1 18260548934961214197
8030462 33 18186801408873701612

> <PUBCHEM_SHAPE_MULTIPOLES>
236.99
5.05
1.44
1.11
1.12
0.29
-0.05
-0.19
-0.59
-1.11
0.21
0.41
0.08
-0.79

> <PUBCHEM_SHAPE_SELFOVERLAP>
494.786

> <PUBCHEM_SHAPE_VOLUME>
134.9

> <PUBCHEM_COORDINATE_TYPE>
2
5
10

$$$$
91461
  SciTegic09112316443D

 31 32  0  0  1  0            999 V2000
    3.1005   -1.4990    0.5989 O   0  0
   -0.6730    0.8015    0.3440 N   0  0  1  0  0  0
   -0.2849   -0.2665   -0.6059 C   0  0  1  0  0  0
    1.2439   -0.5474   -0.5653 C   0  0  1  0  0  0
   -1.0940   -1.5540   -0.3506 C   0  0
    2.0173    0.7543   -0.8250 C   0  0
    0.0597    2.0514    0.0751 C   0  0
   -2.1206    1.0733    0.2958 C   0  0
    1.5737    1.8607    0.1238 C   0  0
   -2.5944   -1.2929   -0.3977 C   0  0
   -2.9537   -0.1762    0.5713 C   0  0
    1.7253   -1.2053    0.7358 C   0  0
   -0.5255    0.0728   -1.6251 H   0  0
    1.4901   -1.2313   -1.3898 H   0  0
   -0.8641   -1.9737    0.6350 H   0  0
   -0.8326   -2.3146   -1.0956 H   0  0
    1.8287    1.0774   -1.8574 H   0  0
    3.0998    0.6059   -0.7462 H   0  0
   -0.2108    2.8051    0.8249 H   0  0
   -0.2194    2.4582   -0.9063 H   0  0
   -2.4040    1.4863   -0.6817 H   0  0
   -2.3778    1.8256    1.0516 H   0  0
    1.8904    1.6362    1.1488 H   0  0
    2.0675    2.7989   -0.1555 H   0  0
   -3.1433   -2.2053   -0.1400 H   0  0
   -2.8908   -1.0130   -1.4159 H   0  0
   -4.0195    0.0624    0.4817 H   0  0
   -2.7860   -0.5127    1.6022 H   0  0
    1.2185   -2.1567    0.9133 H   0  0
    1.5782   -0.5674    1.6118 H   0  0
    3.3904   -1.9163    1.4279 H   0  0
  1 12  1  0
  1 31  1  0
  2  3  1  0
  2  7  1  0
  2  8  1  0
  3  4  1  0
  3  5  1  0
  3 13  1  0
  4  6  1  0
  4 12  1  0
  4 14  1  0
  5 10  1  0
  5 15  1  0
  5 16  1  0
  6  9  1  0
  6 17  1  0
  6 18  1  0
  7  9  1  0
  7 19  1  0
  7 20  1  0
  8 11  1  0
  8 21  1  0
  8 22  1  0
  9 23  1  0
  9 24  1  0
 10 11  1  0
 10 25  1  0
 10 26  1  0
 11 27  1  0
 11 28  1  0
 12 29  1  0
 12 30  1  0
M  END
> <Name>
91461

> <OBJECTID>
9223372144232300558

> <PUBCHEM_COMPOUND_CID>
91461

> <PUBCHEM_CONFORMER_RMSD>
0.6

> <PUBCHEM_CONFORMER_DIVERSEORDER>
1
2
4
3

> <PUBCHEM_MMFF94_PARTIAL_CHARGES>
7
1 -0.68
12 0.28
2 -0.81
3 0.27
31 0.4
7 0.27
8 0.27

> <PUBCHEM_EFFECTIVE_ROTOR_COUNT>
2.6

> <PUBCHEM_PHARMACOPHORE_FEATURES>
5
1 1 acceptor
1 1 donor
1 2 cation
6 2 3 4 6 7 9 rings
6 2 3 5 8 10 11 rings

> <PUBCHEM_HEAVY_ATOM_COUNT>
12

> <PUBCHEM_ATOM_DEF_STEREO_COUNT>
2

> <PUBCHEM_ATOM_UDEF_STEREO_COUNT>
0

> <PUBCHEM_BOND_DEF_STEREO_COUNT>
0

> <PUBCHEM_BOND_UDEF_STEREO_COUNT>
0

> <PUBCHEM_ISOTOPIC_ATOM_COUNT>
0

> <PUBCHEM_COMPONENT_COUNT>
1

> <PUBCHEM_CACTVS_TAUTO_COUNT>
1

> <PUBCHEM_CONFORMER_ID>
1654500000001

> <PUBCHEM_MMFF94_ENERGY>
9.0018

> <PUBCHEM_FEATURE_SELFOVERLAP>
25.391

> <PUBCHEM_SHAPE_FINGERPRINT>
10130415 120 18335984177486069635
11086676 242 18265631904302381201
12202030 40 16660938767286879731
12423570 1 9870653943790009734
12524768 44 18272102616305138631
12696612 119 18412263964683156908
12932764 1 18336555996610267237
14128692 85 18335422335634210534
14251711 518 18270400632297928247
15775835 57 18337967777961616965
16945 1 18192995048093780645
17990270 104 18201732772447041839
18185500 45 18410295813052109422
19021347 11 18193273233093881012
20559304 39 18411984680066089595
20653091 64 18335982051403340074
20871998 184 18055063272999980550
21501502 16 18412546548093810805
22344851 341 17983018044072664600
232386 152 18410859828379167782
23463225 33 18410577270806726871
23552423 10 18121503711265986853
241688 4 17334802793520546643
2748010 2 18412547587249218725
5084963 1 17489040283305156175
528862 383 18336261361495039425
53812654 25 18272364261169956087
57177213 63 18045790245107671453
63268167 104 18337111262708959785
66348 1 18196657504166989455
7364860 26 18272091642842980188

> <PUBCHEM_SHAPE_MULTIPOLES>
236.1
4.05
2.11
0.86
0.88
0.42
0.02
-1.12
-0.48
-0.66
-0.2
-0.16
-0.12
-0.61

> <PUBCHEM_SHAPE_SELFOVERLAP>
472.634

> <PUBCHEM_SHAPE_VOLUME>
138.3

> <PUBCHEM_COORDINATE_TYPE>
2
5
10

$$$$
91558
  SciTegic09112316442D

 50 52  0  0  1  0            999 V2000
    5.0187    0.0000    0.0000 Cl  0  0
    4.0702    7.0443    0.0000 O   0  0
    1.4061    5.5684    0.0000 O   0  0
    6.4938    8.2600    0.0000 N   0  0
    4.9362    3.5443    0.0000 N   0  0
    7.3598    8.7600    0.0000 C   0  0  1  0  0  0
    5.8022    7.0443    0.0000 C   0  0  1  0  0  0
    6.7682    6.7855    0.0000 C   0  0
    8.7491    8.2079    0.0000 C   0  0  2  0  0  0
    6.7304   10.1089    0.0000 C   0  0
    8.3265    7.3016    0.0000 C   0  0
    5.8644    9.6089    0.0000 C   0  0
    4.9362    6.5443    0.0000 C   0  0  1  0  0  0
    9.6888    8.5500    0.0000 C   0  0
    4.9362    5.5443    0.0000 C   0  0
   10.4548    7.9072    0.0000 C   0  0
    4.0702    5.0443    0.0000 C   0  0
    5.8022    5.0443    0.0000 C   0  0
    4.0702    4.0443    0.0000 C   0  0
    3.1762    5.5789    0.0000 C   0  0
    5.8022    4.0443    0.0000 C   0  0
    3.1762    3.5096    0.0000 C   0  0
    2.2702    5.0651    0.0000 C   0  0
    2.2702    4.0235    0.0000 C   0  0
    0.5381    5.0718    0.0000 C   0  0
    8.0960    9.1850    0.0000 H   0  0
    6.5865    7.3721    0.0000 H   0  0
    6.6018    6.1882    0.0000 H   0  0
    7.3638    6.6133    0.0000 H   0  0
    8.7581    8.8279    0.0000 H   0  0
    7.2844   10.3873    0.0000 H   0  0
    6.4361   10.6546    0.0000 H   0  0
    8.0476    6.7479    0.0000 H   0  0
    8.8844    7.0311    0.0000 H   0  0
    5.5701   10.1546    0.0000 H   0  0
    5.3104    9.3306    0.0000 H   0  0
    4.9362    7.1643    0.0000 H   0  0
    9.7965    9.1605    0.0000 H   0  0
    4.0702    7.6643    0.0000 H   0  0
   10.3472    7.2966    0.0000 H   0  0
   11.0375    8.1192    0.0000 H   0  0
    6.3392    5.3543    0.0000 H   0  0
    3.1834    6.1989    0.0000 H   0  0
    6.3392    3.7343    0.0000 H   0  0
    3.1834    2.8896    0.0000 H   0  0
    1.7344    3.7114    0.0000 H   0  0
    0.2302    5.6099    0.0000 H   0  0
    0.0000    4.7638    0.0000 H   0  0
    0.8461    4.5336    0.0000 H   0  0
    6.0187    0.0000    0.0000 H   0  0
  1 50  1  0
 13  2  1  1
  2 39  1  0
  3 23  1  0
  3 25  1  0
  4  7  1  0
  4 11  1  0
  4 12  1  0
  5 19  2  0
  5 21  1  0
  6  8  1  0
  6  9  1  0
  6 10  1  0
  6 26  1  1
  7  8  1  0
  7 13  1  0
  7 27  1  6
  8 28  1  0
  8 29  1  0
  9 11  1  0
  9 14  1  1
  9 30  1  0
 10 12  1  0
 10 31  1  0
 10 32  1  0
 11 33  1  0
 11 34  1  0
 12 35  1  0
 12 36  1  0
 13 15  1  0
 13 37  1  0
 14 16  2  0
 14 38  1  0
 15 17  2  0
 15 18  1  0
 16 40  1  0
 16 41  1  0
 17 19  1  0
 17 20  1  0
 18 21  2  0
 18 42  1  0
 19 22  1  0
 20 23  2  0
 20 43  1  0
 21 44  1  0
 22 24  2  0
 22 45  1  0
 23 24  1  0
 24 46  1  0
 25 47  1  0
 25 48  1  0
 25 49  1  0
M  END
> <Name>
91558

> <OBJECTID>
9223372148527267854

> <PUBCHEM_COMPOUND_CID>
91558

> <PUBCHEM_COMPOUND_CANONICALIZED>
1

> <PUBCHEM_CACTVS_COMPLEXITY>
457

> <PUBCHEM_CACTVS_HBOND_ACCEPTOR>
4

> <PUBCHEM_CACTVS_HBOND_DONOR>
2

> <PUBCHEM_CACTVS_ROTATABLE_BOND>
4

> <PUBCHEM_CACTVS_SUBSKEYS>
AAADceB7MAAEAAAAAAAAAAAAAAAAAAAAAAA8WLFiAAAAAACx8AAAHgAACAAADTzhngY+xvMIFgCgAzRnRACCiCAxIiAI2CA+bJgONuLEsZuEcChkwBHY+Aew4PwOgEABAAACAAAAgAIAAAQAAAAAAAAAAA==

> <PUBCHEM_IUPAC_OPENEYE_NAME>
(R)-(6-methoxy-4-quinolyl)-[(2S,4S,5R)-5-vinylquinuclidin-2-yl]methanol;hydrochloride

> <PUBCHEM_IUPAC_CAS_NAME>
(R)-[(2S,4S,5R)-5-ethenyl-1-azabicyclo[2.2.2]octan-2-yl]-(6-methoxy-4-quinolinyl)methanol;hydrochloride

> <PUBCHEM_IUPAC_NAME_MARKUP>
(<I>R</I>)-[(2<I>S</I>,4<I>S</I>,5<I>R</I>)-5-ethenyl-1-azabicyclo[2.2.2]octan-2-yl]-(6-methoxyquinolin-4-yl)methanol;hydrochloride

> <PUBCHEM_IUPAC_NAME>
(R)-[(2S,4S,5R)-5-ethenyl-1-azabicyclo[2.2.2]octan-2-yl]-(6-methoxyquinolin-4-yl)methanol;hydrochloride

> <PUBCHEM_IUPAC_SYSTEMATIC_NAME>
(R)-[(2S,4S,5R)-5-ethenyl-1-azabicyclo[2.2.2]octan-2-yl]-(6-methoxyquinolin-4-yl)methanol;hydrochloride

> <PUBCHEM_IUPAC_TRADITIONAL_NAME>
(R)-(6-methoxy-4-quinolyl)-[(2S,4S,5R)-5-vinylquinuclidin-2-yl]methanol;hydrochloride

> <PUBCHEM_IUPAC_INCHI>
InChI=1S/C20H24N2O2.ClH/c1-3-13-12-22-9-7-14(13)10-19(22)20(23)16-6-8-21-18-5-4-15(24-2)11-17(16)18;/h3-6,8,11,13-14,19-20,23H,1,7,9-10,12H2,2H3;1H/t13-,14-,19-,20+;/m0./s1

> <PUBCHEM_IUPAC_INCHIKEY>
LBSFSRMTJJPTCW-DSXUQNDKSA-N

> <PUBCHEM_EXACT_MASS>
360.1604557

> <PUBCHEM_MOLECULAR_FORMULA>
C20H25ClN2O2

> <PUBCHEM_MOLECULAR_WEIGHT>
360.9

> <PUBCHEM_OPENEYE_CAN_SMILES>
COC1=CC2=C(C=CN=C2C=C1)C(C3CC4CCN3CC4C=C)O.Cl

> <PUBCHEM_OPENEYE_ISO_SMILES>
COC1=CC2=C(C=CN=C2C=C1)[C@H]([C@@H]3C[C@@H]4CCN3C[C@@H]4C=C)O.Cl

> <PUBCHEM_CACTVS_TPSA>
45.6

> <PUBCHEM_MONOISOTOPIC_WEIGHT>
360.1604557

> <PUBCHEM_TOTAL_CHARGE>
0

> <PUBCHEM_HEAVY_ATOM_COUNT>
25

> <PUBCHEM_ATOM_DEF_STEREO_COUNT>
4

> <PUBCHEM_ATOM_UDEF_STEREO_COUNT>
0

> <PUBCHEM_BOND_DEF_STEREO_COUNT>
0

> <PUBCHEM_BOND_UDEF_STEREO_COUNT>
0

> <PUBCHEM_ISOTOPIC_ATOM_COUNT>
0

> <PUBCHEM_COMPONENT_COUNT>
2

> <PUBCHEM_CACTVS_TAUTO_COUNT>
1

> <PUBCHEM_COORDINATE_TYPE>
1
5
255

> <PUBCHEM_BONDANNOTATIONS>
15  17  8
15  18  8
17  19  8
17  20  8
18  21  8
19  22  8
13  2  5
20  23  8
22  24  8
23  24  8
5  19  8
5  21  8
6  26  5
7  27  6
9  14  5

$$$$
94340
  SciTegic09112316443D

 40 40  0  0  1  0            999 V2000
   -1.3096   -2.0127   -1.3938 O   0  0
    0.8027   -4.1478    0.4857 O   0  0
    2.6947   -3.6673   -0.6545 O   0  0
   -3.3897    0.2444   -1.7191 O   0  0
   -4.6870    1.4832   -0.3321 O   0  0
    2.1267    4.4935   -0.5349 O   0  0
   -0.0639   -1.6793    0.5381 N   0  0
   -2.4241    2.2292    1.0537 N   0  0
    1.2426   -1.8262   -0.0605 C   0  0  1  0  0  0
    2.2946   -1.0090    0.7005 C   0  0
   -2.4746   -0.2003    1.3551 C   0  0
   -2.4614   -1.5789    0.6913 C   0  0
   -2.4068    0.9485    0.3426 C   0  0  1  0  0  0
   -1.2406   -1.7866   -0.1888 C   0  0
    2.2494    0.4633    0.3696 C   0  0
    1.6601   -3.2884   -0.1154 C   0  0
    3.0174    0.9481   -0.6768 C   0  0
    1.4410    1.3028    1.1194 C   0  0
   -3.6145    0.9451   -0.5771 C   0  0
    2.9760    2.3087   -0.9816 C   0  0
    1.3997    2.6633    0.8144 C   0  0
    2.1672    3.1663   -0.2360 C   0  0
    1.1712   -1.4968   -1.1052 H   0  0
    3.3045   -1.3772    0.4739 H   0  0
    2.1837   -1.1479    1.7848 H   0  0
   -1.6437   -0.1147    2.0661 H   0  0
   -3.3958   -0.1250    1.9484 H   0  0
   -3.3613   -1.7371    0.0878 H   0  0
   -2.4610   -2.3575    1.4638 H   0  0
   -0.1135   -1.5984    1.5493 H   0  0
   -1.4956    0.9155   -0.2629 H   0  0
    3.6483    0.2877   -1.2647 H   0  0
    0.8412    0.9220    1.9408 H   0  0
   -1.6193    2.2813    1.6774 H   0  0
   -3.2448    2.2795    1.6571 H   0  0
    3.5781    2.6878   -1.8030 H   0  0
    0.7687    3.3268    1.3994 H   0  0
    1.1137   -5.0763    0.4283 H   0  0
   -4.1779    0.2343   -2.3029 H   0  0
    2.7178    4.6651   -1.2881 H   0  0
  1 14  2  0
  2 16  1  0
  2 38  1  0
  3 16  2  0
  4 19  1  0
  4 39  1  0
  5 19  2  0
  6 22  1  0
  6 40  1  0
  7  9  1  0
  7 14  1  0
  7 30  1  0
  8 13  1  0
  8 34  1  0
  8 35  1  0
  9 10  1  0
  9 16  1  0
  9 23  1  0
 10 15  1  0
 10 24  1  0
 10 25  1  0
 11 12  1  0
 11 13  1  0
 11 26  1  0
 11 27  1  0
 12 14  1  0
 12 28  1  0
 12 29  1  0
 13 19  1  0
 13 31  1  0
 15 17  2  0
 15 18  1  0
 17 20  1  0
 17 32  1  0
 18 21  2  0
 18 33  1  0
 20 22  2  0
 20 36  1  0
 21 22  1  0
 21 37  1  0
M  END
> <Name>
94340

> <OBJECTID>
9223372152822235150

> <PUBCHEM_COMPOUND_CID>
94340

> <PUBCHEM_CONFORMER_RMSD>
0.8

> <PUBCHEM_CONFORMER_DIVERSEORDER>
2
119
99
40
11
152
121
84
165
73
35
111
51
190
61
194
76
176
130
81
139
43
198
131
63
29
52
54
135
69
151
163
30
125
155
95
206
164
23
178
62
83
134
8
149
181
133
37
59
116
26
154
173
67
31
87
172
160
47
97
96
89
50
192
64
171
203
17
72
166
126
41
107
90
195
33
197
100
10
129
120
117
22
137
15
122
32
156
58
115
118
177
123
24
150
106
201
71
184
55
175
27
5
79
167
39
57
16
140
187
144
124
42
142
108
45
36
92
162
141
145
109
13
98
128
94
105
93
46
44
110
66
157
77
185
34
14
70
182
49
53
4
191
138
68
75
6
193
20
179
104
48
202
82
91
180
9
85
65
188
56
78
1
159
183
205
147
168
3
101
112
19
146
174
38
21
74
113
207
28
196
25
103
102
153
186
143
114
148
80
60
170
200
18
204
12
127
86
189
199
158
88
161
169
136
132
7

> <PUBCHEM_MMFF94_PARTIAL_CHARGES>
31
1 -0.57
10 0.14
12 0.06
13 0.33
14 0.57
15 -0.14
16 0.66
17 -0.15
18 -0.15
19 0.66
2 -0.65
20 -0.15
21 -0.15
22 0.08
3 -0.57
30 0.37
32 0.15
33 0.15
34 0.36
35 0.36
36 0.15
37 0.15
38 0.5
39 0.5
4 -0.65
40 0.45
5 -0.57
6 -0.53
7 -0.73
8 -0.99
9 0.36

> <PUBCHEM_EFFECTIVE_ROTOR_COUNT>
9

> <PUBCHEM_PHARMACOPHORE_FEATURES>
12
1 1 acceptor
1 2 acceptor
1 3 acceptor
1 4 acceptor
1 5 acceptor
1 6 donor
1 7 donor
1 8 cation
1 8 donor
3 2 3 16 anion
3 4 5 19 anion
6 15 17 18 20 21 22 rings

> <PUBCHEM_HEAVY_ATOM_COUNT>
22

> <PUBCHEM_ATOM_DEF_STEREO_COUNT>
2

> <PUBCHEM_ATOM_UDEF_STEREO_COUNT>
0

> <PUBCHEM_BOND_DEF_STEREO_COUNT>
0

> <PUBCHEM_BOND_UDEF_STEREO_COUNT>
0

> <PUBCHEM_ISOTOPIC_ATOM_COUNT>
0

> <PUBCHEM_COMPONENT_COUNT>
1

> <PUBCHEM_CACTVS_TAUTO_COUNT>
4

> <PUBCHEM_CONFORMER_ID>
1708400000002

> <PUBCHEM_MMFF94_ENERGY>
38.6009

> <PUBCHEM_FEATURE_SELFOVERLAP>
61.017

> <PUBCHEM_SHAPE_FINGERPRINT>
10498660 4 17760363696652569021
10670039 82 16389314607514344164
12173636 292 17977667837513364350
12553582 1 17832999247339135802
128993 33 18266746976512494984
138480 1 18193840344844173488
14790565 3 17834973236437042865
17134986 127 18337673125983076612
17357779 13 17549526428020292702
19930381 70 18409728478522855681
20465049 17 18268734799066988493
21141583 151 17695642027105691944
21524375 3 18119533386587599266
23557571 272 16754675698762929756
238 59 18338221752299557365
350125 39 18265057018692983226
474 4 18338230462867812273
81228 2 16826717899374636794

> <PUBCHEM_SHAPE_MULTIPOLES>
407.57
6.29
5.32
1.19
2.92
3.27
-0.11
-5.67
-1.4
-2.82
-0.45
0.45
-0.25
-0.06

> <PUBCHEM_SHAPE_SELFOVERLAP>
836.431

> <PUBCHEM_SHAPE_VOLUME>
232.6

> <PUBCHEM_COORDINATE_TYPE>
2
5
10

$$$$
99489
  SciTegic09112316443D

 34 35  0  0  1  0            999 V2000
   -0.7100   -0.8073   -0.8955 O   0  0
   -3.5893    2.0069    0.0213 O   0  0
   -3.6981   -0.5866    1.2517 O   0  0
    0.5981    0.6537    0.4367 O   0  0
   -0.8723    2.8448   -0.5182 O   0  0
   -0.8343   -3.4330   -0.1589 O   0  0
   -2.4397    1.1928    0.2646 C   0  0  1  0  0  0
   -2.8565   -0.2744    0.1442 C   0  0  1  0  0  0
   -1.3616    1.5310   -0.7631 C   0  0  2  0  0  0
   -1.6321   -1.1995    0.1277 C   0  0  1  0  0  0
   -0.2126    0.5221   -0.7295 C   0  0  2  0  0  0
   -2.0142   -2.6510   -0.1495 C   0  0
    1.9244    0.3460    0.2996 C   0  0
    2.2985   -0.9336   -0.0980 C   0  0
    2.8880    1.3149    0.5599 C   0  0
    3.6504   -1.2476   -0.2368 C   0  0
    4.2401    1.0010    0.4211 C   0  0
    4.6212   -0.2803    0.0227 C   0  0
   -2.0971    1.4276    1.2800 H   0  0
   -3.4450   -0.4157   -0.7717 H   0  0
   -1.8173    1.5344   -1.7610 H   0  0
   -1.1140   -1.1695    1.0955 H   0  0
    0.4135    0.7372   -1.6067 H   0  0
   -2.4967   -2.7596   -1.1265 H   0  0
   -2.6849   -3.0438    0.6202 H   0  0
   -4.2070    1.8732    0.7596 H   0  0
   -4.5267   -0.0904    1.1434 H   0  0
   -0.4209    2.8373    0.3432 H   0  0
   -0.2684   -3.1007   -0.8765 H   0  0
    1.5641   -1.7086   -0.2863 H   0  0
    2.5954    2.3141    0.8700 H   0  0
    3.9475   -2.2466   -0.5425 H   0  0
    4.9959    1.7542    0.6233 H   0  0
    5.6740   -0.5251   -0.0842 H   0  0
  1 10  1  0
  1 11  1  0
  2  7  1  0
  2 26  1  0
  3  8  1  0
  3 27  1  0
  4 11  1  0
  4 13  1  0
  5  9  1  0
  5 28  1  0
  6 12  1  0
  6 29  1  0
  7  8  1  0
  7  9  1  0
  7 19  1  0
  8 10  1  0
  8 20  1  0
  9 11  1  0
  9 21  1  0
 10 12  1  0
 10 22  1  0
 11 23  1  0
 12 24  1  0
 12 25  1  0
 13 14  2  0
 13 15  1  0
 14 16  1  0
 14 30  1  0
 15 17  2  0
 15 31  1  0
 16 18  2  0
 16 32  1  0
 17 18  1  0
 17 33  1  0
 18 34  1  0
M  END
> <Name>
99489

> <OBJECTID>
9223372157117202446

> <PUBCHEM_COMPOUND_CID>
99489

> <PUBCHEM_CONFORMER_RMSD>
0.6

> <PUBCHEM_CONFORMER_DIVERSEORDER>
1
38
36
28
9
39
22
41
16
6
32
12
40
42
24
3
21
7
37
27
30
11
19
17
33
8
5
26
23
2
15
18
10
34
31
4
20
25
29
14
35
13

> <PUBCHEM_MMFF94_PARTIAL_CHARGES>
27
1 -0.56
10 0.28
11 0.56
12 0.28
13 0.08
14 -0.15
15 -0.15
16 -0.15
17 -0.15
18 -0.15
2 -0.68
26 0.4
27 0.4
28 0.4
29 0.4
3 -0.68
30 0.15
31 0.15
32 0.15
33 0.15
34 0.15
4 -0.36
5 -0.68
6 -0.68
7 0.28
8 0.28
9 0.28

> <PUBCHEM_EFFECTIVE_ROTOR_COUNT>
4.2

> <PUBCHEM_PHARMACOPHORE_FEATURES>
12
1 1 acceptor
1 2 acceptor
1 2 donor
1 3 acceptor
1 3 donor
1 4 acceptor
1 5 acceptor
1 5 donor
1 6 acceptor
1 6 donor
6 1 7 8 9 10 11 rings
6 13 14 15 16 17 18 rings

> <PUBCHEM_HEAVY_ATOM_COUNT>
18

> <PUBCHEM_ATOM_DEF_STEREO_COUNT>
5

> <PUBCHEM_ATOM_UDEF_STEREO_COUNT>
0

> <PUBCHEM_BOND_DEF_STEREO_COUNT>
0

> <PUBCHEM_BOND_UDEF_STEREO_COUNT>
0

> <PUBCHEM_ISOTOPIC_ATOM_COUNT>
0

> <PUBCHEM_COMPONENT_COUNT>
1

> <PUBCHEM_CACTVS_TAUTO_COUNT>
1

> <PUBCHEM_CONFORMER_ID>
000184A100000001

> <PUBCHEM_MMFF94_ENERGY>
58.2648

> <PUBCHEM_FEATURE_SELFOVERLAP>
60.954

> <PUBCHEM_SHAPE_FINGERPRINT>
10608611 8 18341324548633708440
10616163 171 18339643459811178862
1100329 8 15025554141428772937
11132069 177 18338509850210809880
11552529 35 17773878781886148746
12173636 292 18337666395743158300
12251169 10 18340772631944589025
12500047 106 18411975854119137000
12553582 1 17904773523722369278
12633257 1 18201725063091690906
12969540 114 18116972439412547549
13004483 165 17840568611739470103
15219456 202 18342457024013895572
15309172 13 18339928108404302145
16945 1 18266464398140425189
17804303 29 18339648845541379918
17834074 16 18411419505757160074
1813 80 17386007320672143238
20510252 161 18343303630671616545
20871998 184 18408045095923571701
23402539 116 18343012320683761911
23557571 272 18270971236378891388
23559900 14 18270671103747930608
2748010 2 18265350421326423591
2838139 119 14979126739466337537
5104073 3 18410571765191644632
58807428 26 18265906765435579403
598444 67 18341052895761660407
69090 78 18411412882490341199
81228 2 18193540380181096027
8809292 202 18412263930803609394
9709674 26 18343865519947548302

> <PUBCHEM_SHAPE_MULTIPOLES>
335.22
7.52
2.8
0.82
5.73
1.16
-0.02
-0.48
-1.37
-2.13
0.34
-0.24
-0.07
0.47

> <PUBCHEM_SHAPE_SELFOVERLAP>
699.967

> <PUBCHEM_SHAPE_VOLUME>
187.3

> <PUBCHEM_COORDINATE_TYPE>
2
5
10

$$$$
100094
  SciTegic09112316443D

 43 44  0  0  1  0            999 V2000
   -0.8553   -0.0381   -2.2773 O   0  0
   -2.4411   -2.2936    0.9551 O   0  0
   -1.3157   -4.1249    0.2547 O   0  0
   -4.5791   -0.0322    1.0244 O   0  0
   -3.8489    2.0892    1.3795 O   0  0
   -0.7255   -0.5824   -0.0229 N   0  0
    3.8325   -0.6479   -1.1949 N   0  0
   -0.2723    2.5641   -1.1144 N   0  0
    1.0192   -2.2389    0.5041 C   0  0
   -0.3251   -1.9617   -0.1833 C   0  0  1  0  0  0
    2.1357   -1.3711   -0.0044 C   0  0
    2.5011   -0.1140    0.5136 C   0  0
   -1.3370    1.6779   -0.6407 C   0  0  1  0  0  0
    3.5796    0.3268   -0.2562 C   0  0
   -2.6793    2.1378   -1.2291 C   0  0
    2.9536   -1.6869   -1.0454 C   0  0
   -0.9588    0.2704   -1.0917 C   0  0
   -1.3908   -2.9048    0.3562 C   0  0
    2.0337    0.7071    1.5590 C   0  0
   -3.8495    1.2207   -0.8735 C   0  0
    4.2166    1.5526   -0.0322 C   0  0
    2.6610    1.9358    1.7948 C   0  0
    3.7355    2.3501    1.0102 C   0  0
   -4.0902    1.1641    0.6144 C   0  0
    0.9180   -2.1008    1.5892 H   0  0
    1.2940   -3.2933    0.3668 H   0  0
   -0.2434   -2.1741   -1.2563 H   0  0
   -1.3612    1.7377    0.4518 H   0  0
   -0.8818   -0.2499    0.9239 H   0  0
   -2.6130    2.1807   -2.3245 H   0  0
   -2.8965    3.1590   -0.8893 H   0  0
    3.0011   -2.5467   -1.6989 H   0  0
    4.5617   -0.6022   -1.8932 H   0  0
    1.1992    0.4002    2.1830 H   0  0
   -3.6646    0.2082   -1.2480 H   0  0
   -4.7682    1.5876   -1.3438 H   0  0
    5.0530    1.8761   -0.6425 H   0  0
   -0.2614    2.5802   -2.1341 H   0  0
   -0.4720    3.5209   -0.8242 H   0  0
    2.3048    2.5731    2.5997 H   0  0
    4.2079    3.3084    1.2108 H   0  0
   -3.1031   -2.9388    1.2831 H   0  0
   -4.7171   -0.0584    1.9952 H   0  0
  1 17  2  0
  2 18  1  0
  2 42  1  0
  3 18  2  0
  4 24  1  0
  4 43  1  0
  5 24  2  0
  6 10  1  0
  6 17  1  0
  6 29  1  0
  7 14  1  0
  7 16  1  0
  7 33  1  0
  8 13  1  0
  8 38  1  0
  8 39  1  0
  9 10  1  0
  9 11  1  0
  9 25  1  0
  9 26  1  0
 10 18  1  0
 10 27  1  0
 11 12  1  0
 11 16  2  0
 12 14  1  0
 12 19  2  0
 13 15  1  0
 13 17  1  0
 13 28  1  0
 14 21  2  0
 15 20  1  0
 15 30  1  0
 15 31  1  0
 16 32  1  0
 19 22  1  0
 19 34  1  0
 20 24  1  0
 20 35  1  0
 20 36  1  0
 21 23  1  0
 21 37  1  0
 22 23  2  0
 22 40  1  0
 23 41  1  0
M  END
> <Name>
100094

> <OBJECTID>
9223372161412169742

> <PUBCHEM_COMPOUND_CID>
100094

> <PUBCHEM_CONFORMER_RMSD>
1

> <PUBCHEM_CONFORMER_DIVERSEORDER>
1
39
51
81
107
108
21
96
61
78
83
56
105
99
6
27
37
74
50
77
24
18
103
34
98
11
64
79
13
72
42
22
82
59
60
15
102
41
100
57
65
54
112
23
52
44
92
75
87
35
2
68
93
90
104
30
20
111
62
4
10
66
48
101
14
88
19
84
17
91
73
63
80
69
106
47
32
45
36
9
97
5
16
70
43
33
67
85
95
12
110
7
55
109
40
71
94
49
113
8
58
31
26
53
28
89
86
46
29
25
38
76
3

> <PUBCHEM_MMFF94_PARTIAL_CHARGES>
33
1 -0.57
10 0.36
11 -0.18
13 0.33
14 -0.15
16 -0.3
17 0.57
18 0.66
19 -0.15
2 -0.65
20 0.06
21 -0.15
22 -0.15
23 -0.15
24 0.66
29 0.37
3 -0.57
32 0.15
33 0.27
34 0.15
37 0.15
38 0.36
39 0.36
4 -0.65
40 0.15
41 0.15
42 0.5
43 0.5
5 -0.57
6 -0.73
7 0.03
8 -0.99
9 0.18

> <PUBCHEM_EFFECTIVE_ROTOR_COUNT>
9

> <PUBCHEM_PHARMACOPHORE_FEATURES>
14
1 1 acceptor
1 2 acceptor
1 3 acceptor
1 4 acceptor
1 5 acceptor
1 6 donor
1 7 cation
1 7 donor
1 8 cation
1 8 donor
3 2 3 18 anion
3 4 5 24 anion
5 7 11 12 14 16 rings
6 12 14 19 21 22 23 rings

> <PUBCHEM_HEAVY_ATOM_COUNT>
24

> <PUBCHEM_ATOM_DEF_STEREO_COUNT>
2

> <PUBCHEM_ATOM_UDEF_STEREO_COUNT>
0

> <PUBCHEM_BOND_DEF_STEREO_COUNT>
0

> <PUBCHEM_BOND_UDEF_STEREO_COUNT>
0

> <PUBCHEM_ISOTOPIC_ATOM_COUNT>
0

> <PUBCHEM_COMPONENT_COUNT>
1

> <PUBCHEM_CACTVS_TAUTO_COUNT>
2

> <PUBCHEM_CONFORMER_ID>
000186FE00000001

> <PUBCHEM_MMFF94_ENERGY>
34.0311

> <PUBCHEM_FEATURE_SELFOVERLAP>
71.258

> <PUBCHEM_SHAPE_FINGERPRINT>
10165383 225 18263098634160198508
10366900 7 18120373147283260077
10498660 4 18261383438675323685
11595378 159 17385718114807053641
12633257 1 18339635646853756378
13140716 1 18409440397754581770
14787075 74 18272076245606978117
15295992 7 18343858909892386450
19591789 44 18336548201081380391
20600515 1 17027670021660498582
21503847 285 17845373241260603617
22182937 141 18341044232912903064
23419403 2 17342138967071682711
23536364 44 17477505105197821726
23557571 272 18119523486687890822
23559900 14 17607804994057718789
238 59 18049700946100883039
2637199 183 18060423469505401252
350125 39 18188492359247883922
3797600 57 16660941992892046028
458136 41 18121228575803715563
469060 322 16950837124295837559
49207404 50 18334856069924150577
57527585 21 17768514342132563700
633830 44 18058447612882483205
6442390 28 18408609162178593595
7808743 9 18261395611061345244
81228 2 18115580594708840127
9981440 41 16983169406034371968

> <PUBCHEM_SHAPE_MULTIPOLES>
449.62
8.03
3.75
1.55
1.88
2.56
-0.11
-4.7
1.28
1.13
0.61
0.13
-0.59
1.48

> <PUBCHEM_SHAPE_SELFOVERLAP>
948.78

> <PUBCHEM_SHAPE_VOLUME>
251.4

> <PUBCHEM_COORDINATE_TYPE>
2
5
10

$$$$
102336
  SciTegic09112316443D

 34 35  0  0  1  0            999 V2000
    0.4608    0.6671   -0.1365 O   0  0
    4.0456   -1.3988   -0.0387 O   0  0
    3.0617    0.8756   -1.2990 O   0  0
   -0.7243   -1.3193   -0.4508 O   0  0
    1.5487   -2.7861    0.4155 O   0  0
    0.1883    3.3221    0.5085 O   0  0
    2.8689   -0.7701    0.4618 C   0  0  1  0  0  0
    2.8762    0.7178    0.1091 C   0  0  2  0  0  0
    1.6399   -1.4666   -0.1214 C   0  0  2  0  0  0
    1.5402    1.3522    0.5109 C   0  0  1  0  0  0
    0.3627   -0.7055    0.2412 C   0  0  1  0  0  0
    1.4520    2.8205    0.1115 C   0  0
   -1.9624   -0.7727   -0.2528 C   0  0
   -2.5007   -0.7277    1.0296 C   0  0
   -2.6746   -0.2662   -1.3356 C   0  0
   -3.7636   -0.1711    1.2311 C   0  0
   -3.9375    0.2906   -1.1339 C   0  0
   -4.4819    0.3382    0.1495 C   0  0
    2.8825   -0.8897    1.5525 H   0  0
    3.7183    1.2184    0.5985 H   0  0
    1.7398   -1.5754   -1.2081 H   0  0
    1.3862    1.2723    1.5951 H   0  0
    0.1924   -0.7812    1.3232 H   0  0
    1.5307    2.9569   -0.9718 H   0  0
    2.2322    3.4122    0.5991 H   0  0
    3.9916   -2.3425    0.1899 H   0  0
    2.2550    0.5732   -1.7492 H   0  0
    0.7459   -3.1945    0.0486 H   0  0
   -0.4930    2.7791    0.0760 H   0  0
   -1.9645   -1.1356    1.8813 H   0  0
   -2.2542   -0.3006   -2.3367 H   0  0
   -4.1895   -0.1377    2.2297 H   0  0
   -4.4970    0.6872   -1.9761 H   0  0
   -5.4656    0.7709    0.3064 H   0  0
  1 10  1  0
  1 11  1  0
  2  7  1  0
  2 26  1  0
  3  8  1  0
  3 27  1  0
  4 11  1  0
  4 13  1  0
  5  9  1  0
  5 28  1  0
  6 12  1  0
  6 29  1  0
  7  8  1  0
  7  9  1  0
  7 19  1  0
  8 10  1  0
  8 20  1  0
  9 11  1  0
  9 21  1  0
 10 12  1  0
 10 22  1  0
 11 23  1  0
 12 24  1  0
 12 25  1  0
 13 14  2  0
 13 15  1  0
 14 16  1  0
 14 30  1  0
 15 17  2  0
 15 31  1  0
 16 18  2  0
 16 32  1  0
 17 18  1  0
 17 33  1  0
 18 34  1  0
M  END
> <Name>
102336

> <OBJECTID>
9223372165707137038

> <PUBCHEM_COMPOUND_CID>
102336

> <PUBCHEM_CONFORMER_RMSD>
0.6

> <PUBCHEM_CONFORMER_DIVERSEORDER>
1
14
15
12
33
31
4
36
40
21
39
25
34
7
43
35
5
44
10
37
30
13
8
2
18
16
22
27
29
23
11
6
17
42
3
26
32
38
20
28
19
9
24
41

> <PUBCHEM_MMFF94_PARTIAL_CHARGES>
27
1 -0.56
10 0.28
11 0.56
12 0.28
13 0.08
14 -0.15
15 -0.15
16 -0.15
17 -0.15
18 -0.15
2 -0.68
26 0.4
27 0.4
28 0.4
29 0.4
3 -0.68
30 0.15
31 0.15
32 0.15
33 0.15
34 0.15
4 -0.36
5 -0.68
6 -0.68
7 0.28
8 0.28
9 0.28

> <PUBCHEM_EFFECTIVE_ROTOR_COUNT>
4.2

> <PUBCHEM_PHARMACOPHORE_FEATURES>
12
1 1 acceptor
1 2 acceptor
1 2 donor
1 3 acceptor
1 3 donor
1 4 acceptor
1 5 acceptor
1 5 donor
1 6 acceptor
1 6 donor
6 1 7 8 9 10 11 rings
6 13 14 15 16 17 18 rings

> <PUBCHEM_HEAVY_ATOM_COUNT>
18

> <PUBCHEM_ATOM_DEF_STEREO_COUNT>
5

> <PUBCHEM_ATOM_UDEF_STEREO_COUNT>
0

> <PUBCHEM_BOND_DEF_STEREO_COUNT>
0

> <PUBCHEM_BOND_UDEF_STEREO_COUNT>
0

> <PUBCHEM_ISOTOPIC_ATOM_COUNT>
0

> <PUBCHEM_COMPONENT_COUNT>
1

> <PUBCHEM_CACTVS_TAUTO_COUNT>
1

> <PUBCHEM_CONFORMER_ID>
00018FC000000001

> <PUBCHEM_MMFF94_ENERGY>
58.1463

> <PUBCHEM_FEATURE_SELFOVERLAP>
60.966

> <PUBCHEM_SHAPE_FINGERPRINT>
10366900 7 17967532389563988267
104564 63 18198065772356637752
10980938 120 18410007745285002447
11471102 20 18410007740963499054
11615757 297 18341895208048027875
116883 192 17910393892335082518
12236239 1 17632292359443930843
12507557 5 18412821417358059963
12596599 1 17775009037142556965
12654215 9 18333723611644074750
13134695 92 18338786845462693300
13140716 1 18267017452088127232
13464514 151 18053108603677879204
14866123 147 16461911395830101811
15042514 8 16896801260139740602
15219456 202 18040154024176330687
15653759 3 17385441025166116179
16945 1 18411979191092389698
18186145 218 18199755897695263225
18219364 16 18263640843706270521
19049666 15 17751349600102493143
20233049 118 18333730238868608140
20645476 183 17917705838434682927
20645477 70 18411133615100992895
20671657 1 18269834371030203661
20681677 76 18262513827334719331
21041028 32 18265897947382319809
21639500 275 18339912831326884613
22094290 62 18341894146758478689
22289505 5 18263912259885379125
2255824 54 18270398416100019636
22854114 111 18411699923992600331
22892500 29 18337098038504675293
23175994 123 18335988562500057135
23559900 14 17022897900603883667
23598291 2 18060129977267933271
25 1 18335422408495725738
3060560 45 17989207049017672542
3472631 163 15410898436118175075
350125 39 17977108186137245043
474 4 18269265936382407553
6438718 38 17701539494297799977
74978 22 18271242849693887327
77492 1 17632293475971858523
7832392 63 18271803596249938566
81228 2 17326600411002486834
84936 182 17700406159348933481
9971528 1 18131063823356987962
9981440 41 17193170757940635976

> <PUBCHEM_SHAPE_MULTIPOLES>
335.22
7.41
2.54
1.07
4.36
1.54
0.12
-0.57
0.32
-2.41
-0.39
0.8
0.02
0

> <PUBCHEM_SHAPE_SELFOVERLAP>
701.061

> <PUBCHEM_SHAPE_VOLUME>
187

> <PUBCHEM_COORDINATE_TYPE>
2
5
10

$$$$
111054
  SciTegic09112316443D

 33 34  0  0  1  0            999 V2000
    0.6381    2.5908    1.0401 O   0  0
    1.3646   -2.6281    0.5265 O   0  0
    5.7554   -0.1148   -0.1951 O   0  0
    4.2930    0.7755   -1.6950 O   0  0
   -0.0524   -0.8308    0.7715 N   0  0
    2.0018    0.8144    0.5085 N   0  0
   -0.4014    0.5137    0.3367 C   0  0  1  0  0  0
    2.1372   -0.4469   -0.2053 C   0  0  2  0  0  0
   -1.7017    0.9788    0.9723 C   0  0
    0.7681    1.4148    0.7085 C   0  0
    1.1550   -1.4212    0.4309 C   0  0
    3.5661   -0.9625   -0.1484 C   0  0
   -2.9056    0.4091    0.2684 C   0  0
   -3.4704    1.1061   -0.7900 C   0  0
   -3.4314   -0.8042    0.6887 C   0  0
    4.5372   -0.0016   -0.7842 C   0  0
   -4.5850    0.5786   -1.4420 C   0  0
   -4.5459   -1.3316    0.0367 C   0  0
   -5.1227   -0.6402   -1.0288 C   0  0
   -0.4699    0.5059   -0.7589 H   0  0
    1.8254   -0.2773   -1.2434 H   0  0
   -1.7836    2.0733    0.9437 H   0  0
   -1.7343    0.7192    2.0393 H   0  0
   -0.7749   -1.4357    1.1481 H   0  0
    2.8290    1.3788    0.6785 H   0  0
    3.8569   -1.1180    0.8986 H   0  0
    3.6585   -1.9231   -0.6676 H   0  0
   -3.0578    2.0548   -1.1215 H   0  0
   -2.9994   -1.3484    1.5233 H   0  0
   -5.0337    1.1166   -2.2719 H   0  0
   -4.9662   -2.2795    0.3599 H   0  0
   -5.9908   -1.0507   -1.5362 H   0  0
    6.4104    0.5004   -0.5885 H   0  0
  1 10  2  0
  2 11  2  0
  3 16  1  0
  3 33  1  0
  4 16  2  0
  5  7  1  0
  5 11  1  0
  5 24  1  0
  6  8  1  0
  6 10  1  0
  6 25  1  0
  7  9  1  0
  7 10  1  0
  7 20  1  0
  8 11  1  0
  8 12  1  0
  8 21  1  0
  9 13  1  0
  9 22  1  0
  9 23  1  0
 12 16  1  0
 12 26  1  0
 12 27  1  0
 13 14  2  0
 13 15  1  0
 14 17  1  0
 14 28  1  0
 15 18  2  0
 15 29  1  0
 17 19  2  0
 17 30  1  0
 18 19  1  0
 18 31  1  0
 19 32  1  0
M  END
> <Name>
111054

> <OBJECTID>
9223372170002104334

> <PUBCHEM_COMPOUND_CID>
111054

> <PUBCHEM_CONFORMER_RMSD>
0.6

> <PUBCHEM_CONFORMER_DIVERSEORDER>
1
40
47
43
45
23
49
51
29
15
34
46
22
48
17
62
18
11
33
38
37
16
60
59
36
21
8
32
24
53
9
39
2
50
55
42
3
10
19
63
7
25
5
41
28
31
13
27
12
56
26
54
57
6
61
52
44
14
20
58
30
35
4

> <PUBCHEM_MMFF94_PARTIAL_CHARGES>
27
1 -0.57
10 0.57
11 0.57
12 0.06
13 -0.14
14 -0.15
15 -0.15
16 0.66
17 -0.15
18 -0.15
19 -0.15
2 -0.57
24 0.37
25 0.37
28 0.15
29 0.15
3 -0.65
30 0.15
31 0.15
32 0.15
33 0.5
4 -0.57
5 -0.73
6 -0.73
7 0.36
8 0.36
9 0.14

> <PUBCHEM_EFFECTIVE_ROTOR_COUNT>
4.8

> <PUBCHEM_PHARMACOPHORE_FEATURES>
9
1 1 acceptor
1 2 acceptor
1 3 acceptor
1 4 acceptor
1 5 donor
1 6 donor
3 3 4 16 anion
6 13 14 15 17 18 19 rings
6 5 6 7 8 10 11 rings

> <PUBCHEM_HEAVY_ATOM_COUNT>
19

> <PUBCHEM_ATOM_DEF_STEREO_COUNT>
2

> <PUBCHEM_ATOM_UDEF_STEREO_COUNT>
0

> <PUBCHEM_BOND_DEF_STEREO_COUNT>
0

> <PUBCHEM_BOND_UDEF_STEREO_COUNT>
0

> <PUBCHEM_ISOTOPIC_ATOM_COUNT>
0

> <PUBCHEM_COMPONENT_COUNT>
1

> <PUBCHEM_CACTVS_TAUTO_COUNT>
4

> <PUBCHEM_CONFORMER_ID>
0001B1CE00000001

> <PUBCHEM_MMFF94_ENERGY>
56.1534

> <PUBCHEM_FEATURE_SELFOVERLAP>
45.737

> <PUBCHEM_SHAPE_FINGERPRINT>
10366900 7 18261386776418787387
11089746 13 15574711422044588076
11543360 7 17748548151569378045
11806522 49 18272933825526052632
12251169 10 10447921780936518201
12507557 5 9655574119658824143
12553582 1 18272088275704801515
12670546 177 18186802478352285093
12788726 201 17772752663595435769
13583140 156 16443361900482541000
13675066 3 10881407521114906873
13862211 1 18343018878951369914
14350574 20 18340207483611503419
14466204 15 7925640994021503007
14576447 43 18272926124607655151
15209294 21 12396300378325840420
1813 80 16845303742955783948
18222031 100 17632286869916349508
193927 3 17274831276213744197
19433438 38 18113617876596121587
19784866 170 9007067863170155176
19784866 240 16702012115707768885
200 152 18130785655494519867
20645477 70 18059844113156607061
20871999 31 18409729534894834921
21637258 2 15841268156201518014
221357 26 18412537722236802013
221490 88 18268148845638215755
22393880 68 18339349838560953439
23402539 116 17988649558025472256
23402655 69 18335416821075479157
23559900 14 18336815490240132729
2838139 119 16515692169114393868
2871803 45 18412259528013608233
33382 64 15554177990861681918
3472631 163 16081358632324670279
351380 180 16370727037001499180

> <PUBCHEM_SHAPE_MULTIPOLES>
357.57
11.16
1.86
1.19
1.88
0.06
0.3
1.66
5.32
0.2
-0.55
-0.24
-0.29
0.05

> <PUBCHEM_SHAPE_SELFOVERLAP>
754.956

> <PUBCHEM_SHAPE_VOLUME>
197.7

> <PUBCHEM_COORDINATE_TYPE>
2
5
10

$$$$
111141
  SciTegic09112316443D

 40 42  0  0  1  0            999 V2000
    1.9104    0.7053   -0.6355 O   0  0
    0.2056   -0.8732   -0.8495 O   0  0
    4.6805   -2.2089    0.2018 O   0  0
    5.2652    0.5523    0.8260 O   0  0
    1.8043   -2.7548    0.5334 O   0  0
    2.3906    3.4022   -0.4071 O   0  0
    3.6815   -1.2386    0.5194 C   0  0  1  0  0  0
    4.1694    0.1224    0.0225 C   0  0  1  0  0  0
    2.3620   -1.6300   -0.1458 C   0  0  2  0  0  0
    3.0484    1.1618    0.0978 C   0  0  1  0  0  0
    1.3496   -0.4860   -0.0889 C   0  0  1  0  0  0
    3.4760    2.4979   -0.5014 C   0  0
   -0.9967   -0.3541   -0.4542 C   0  0
   -2.1650   -1.0807   -0.6648 C   0  0
   -1.0424    0.8942    0.1520 C   0  0
   -3.4076   -0.5613   -0.2667 C   0  0
   -3.4600    0.7107    0.3518 C   0  0
   -2.2682    1.4255    0.5539 C   0  0
   -4.5994   -1.2762   -0.4688 C   0  0
   -4.7025    1.2301    0.7499 C   0  0
   -5.8251   -0.7448   -0.0670 C   0  0
   -5.8766    0.5059    0.5412 C   0  0
    3.5799   -1.2451    1.6117 H   0  0
    4.5360    0.0246   -1.0067 H   0  0
    2.5369   -1.9405   -1.1828 H   0  0
    2.7441    1.3393    1.1384 H   0  0
    1.0720   -0.3276    0.9642 H   0  0
    3.7362    2.3975   -1.5603 H   0  0
    4.3289    2.9266    0.0323 H   0  0
    5.5078   -1.9248    0.6270 H   0  0
    4.9476    0.6491    1.7401 H   0  0
    1.6461   -2.5012    1.4587 H   0  0
    1.6390    3.0107   -0.8841 H   0  0
   -2.1059   -2.0571   -1.1420 H   0  0
   -0.1664    1.5100    0.3196 H   0  0
   -2.2861    2.4071    1.0232 H   0  0
   -4.5830   -2.2556   -0.9422 H   0  0
   -4.7666    2.2058    1.2272 H   0  0
   -6.7396   -1.3080   -0.2291 H   0  0
   -6.8312    0.9190    0.8538 H   0  0
  1 10  1  0
  1 11  1  0
  2 11  1  0
  2 13  1  0
  3  7  1  0
  3 30  1  0
  4  8  1  0
  4 31  1  0
  5  9  1  0
  5 32  1  0
  6 12  1  0
  6 33  1  0
  7  8  1  0
  7  9  1  0
  7 23  1  0
  8 10  1  0
  8 24  1  0
  9 11  1  0
  9 25  1  0
 10 12  1  0
 10 26  1  0
 11 27  1  0
 12 28  1  0
 12 29  1  0
 13 14  2  0
 13 15  1  0
 14 16  1  0
 14 34  1  0
 15 18  2  0
 15 35  1  0
 16 17  1  0
 16 19  2  0
 17 18  1  0
 17 20  2  0
 18 36  1  0
 19 21  1  0
 19 37  1  0
 20 22  1  0
 20 38  1  0
 21 22  2  0
 21 39  1  0
 22 40  1  0
M  END
> <Name>
111141

> <OBJECTID>
9223372174297071630

> <PUBCHEM_COMPOUND_CID>
111141

> <PUBCHEM_CONFORMER_RMSD>
0.8

> <PUBCHEM_CONFORMER_DIVERSEORDER>
4
57
75
49
10
64
32
59
7
67
52
5
47
69
1
65
55
41
74
9
76
46
26
13
20
62
63
72
3
53
6
22
17
30
68
28
39
14
51
78
38
35
42
44
71
45
34
43
37
70
8
15
31
16
19
12
48
33
11
24
56
58
27
2
40
23
36
54
61
66
73
60
29
21
25
50
77
18

> <PUBCHEM_MMFF94_PARTIAL_CHARGES>
31
1 -0.56
10 0.28
11 0.56
12 0.28
13 0.08
14 -0.15
15 -0.15
18 -0.15
19 -0.15
2 -0.36
20 -0.15
21 -0.15
22 -0.15
3 -0.68
30 0.4
31 0.4
32 0.4
33 0.4
34 0.15
35 0.15
36 0.15
37 0.15
38 0.15
39 0.15
4 -0.68
40 0.15
5 -0.68
6 -0.68
7 0.28
8 0.28
9 0.28

> <PUBCHEM_EFFECTIVE_ROTOR_COUNT>
4.2

> <PUBCHEM_PHARMACOPHORE_FEATURES>
13
1 1 acceptor
1 2 acceptor
1 3 acceptor
1 3 donor
1 4 acceptor
1 4 donor
1 5 acceptor
1 5 donor
1 6 acceptor
1 6 donor
6 1 7 8 9 10 11 rings
6 13 14 15 16 17 18 rings
6 16 17 19 20 21 22 rings

> <PUBCHEM_HEAVY_ATOM_COUNT>
22

> <PUBCHEM_ATOM_DEF_STEREO_COUNT>
5

> <PUBCHEM_ATOM_UDEF_STEREO_COUNT>
0

> <PUBCHEM_BOND_DEF_STEREO_COUNT>
0

> <PUBCHEM_BOND_UDEF_STEREO_COUNT>
0

> <PUBCHEM_ISOTOPIC_ATOM_COUNT>
0

> <PUBCHEM_COMPONENT_COUNT>
1

> <PUBCHEM_CACTVS_TAUTO_COUNT>
1

> <PUBCHEM_CONFORMER_ID>
0001B22500000004

> <PUBCHEM_MMFF94_ENERGY>
72.5359

> <PUBCHEM_FEATURE_SELFOVERLAP>
66.06

> <PUBCHEM_SHAPE_FINGERPRINT>
10354089 29 18411138039407307248
10366900 7 17749681705144839626
10595046 47 18341050821767229333
10688039 33 17822007571588948332
10937287 8 17250348661458143852
11045977 3 18040443199997813491
11724838 91 18272364308451604111
12107183 9 17692254032627507187
12166972 35 18201722834262185576
12236239 1 18273494571992432814
12403259 118 18342452608829934313
12616971 3 18342457045673277135
12633257 1 17967802882224680560
12788726 201 17489039184178897873
13167823 11 18412262831207605039
13533116 47 18333732411874101091
14251764 18 18410288108788297794
14341114 176 18341334413740875842
14341114 328 18343301461728904107
14528608 73 18340491170063946021
14739800 52 17774149240678057864
14849402 71 18337390565087074080
15196674 1 18342458127793993427
17492 89 18269838618890561687
17834072 33 18411981373400123151
17844677 252 18410580548436687249
1813 80 17313108518518556708
18681886 176 18202280325475593114
19050596 39 18412263926250042823
200 152 18412822482620744871
20511986 3 18272072891210957709
20715895 44 17981890744634899985
21033648 29 17095790092860545541
21065198 48 18341613676899002443
21267235 1 18340775857523362430
23402539 116 18201994413955960487
23559900 14 18410853261236996115
239999 70 18343310249279666206
245318 6 17391365373815901924
26918003 58 18113057147151361515
3004659 81 18271812306512199508
34797466 226 15410615947402821465
350125 39 18411982446857273004
351380 180 18409167705727314049
3545911 37 18343021086258254046
3680242 22 18270973362139848161
4073 2 18041285468749010851
4214541 1 18339924814560050849
4340502 62 17967819370820751915
474 4 18335421313405698368
5104073 3 18342181072576137923
5283173 99 18115858617275754253
5312544 6 18265899231646528933
67856867 119 18340766039280903785
8272917 22 18410859862902384470
9709674 26 18411144614781412415
9981440 41 17617372227131410544

> <PUBCHEM_SHAPE_MULTIPOLES>
417.53
12.93
2.52
0.81
6.67
0.77
-0.01
-0.1
-1.97
-3.06
0.09
0.05
0.02
-1.27

> <PUBCHEM_SHAPE_SELFOVERLAP>
900.995

> <PUBCHEM_SHAPE_VOLUME>
227.4

> <PUBCHEM_COORDINATE_TYPE>
2
5
10

$$$$
115149
  SciTegic09112316443D

 72 76  0  0  1  0            999 V2000
   -1.7683   -1.7518    0.5875 O   0  0
   -0.5939   -3.7528    0.3419 O   0  0
   -2.3634   -1.0838   -1.5936 O   0  0
    0.6665   -0.3237    0.3863 O   0  0
    2.9631   -1.9323    1.2910 O   0  0
    2.9715   -4.5098   -0.0174 O   0  0
   -4.0396    3.1824   -0.0800 O   0  0
   -0.8059   -6.3208   -0.6156 O   0  0
   -2.6445    3.0457   -1.8415 O   0  0
    1.5504    0.2582    2.4305 O   0  0
   -1.0575    2.2637    1.6377 O   0  0
    1.1012    5.8098   -0.6957 O   0  0
    4.7973   -0.7144   -2.5997 O   0  0
   -3.8355    0.3792    0.4646 C   0  0  2  0  0  0
   -4.0742   -1.1285    0.2144 C   0  0  2  0  0  0
    0.6139   -1.6932    0.7852 C   0  0  1  0  0  0
   -0.5747   -2.3508    0.0840 C   0  0  2  0  0  0
    1.9281   -2.3804    0.4144 C   0  0  2  0  0  0
   -2.8022   -1.7491   -0.3994 C   0  0  2  0  0  0
    1.8165   -3.8989    0.5520 C   0  0  1  0  0  0
    0.5659   -4.4184   -0.1611 C   0  0  1  0  0  0
   -5.0899    1.1612    0.8359 C   0  0
   -3.1614    1.0206   -0.7082 C   0  0
   -4.6923    2.6046    1.0712 C   0  0
   -5.2710   -1.4330   -0.6426 C   0  0
    0.3699   -5.9148    0.0608 C   0  0
   -2.5129    0.2785   -1.6183 C   0  0
   -3.2433    2.4831   -0.9303 C   0  0
   -6.3276   -2.1405   -0.2285 C   0  0
    1.1576    0.5440    1.3101 C   0  0
    1.1582    1.9292    0.7756 C   0  0
    2.2634    2.4305    0.0882 C   0  0
    0.0338    2.7318    0.9683 C   0  0
    2.2446    3.7346   -0.4065 C   0  0
    3.4474    1.6214   -0.1282 C   0  0
    0.0148    4.0358    0.4737 C   0  0
    1.1202    4.5372   -0.2137 C   0  0
    3.5531    0.8318   -1.2733 C   0  0
    4.4811    1.6339    0.8082 C   0  0
    4.6927    0.0551   -1.4820 C   0  0
    5.6206    0.8570    0.5997 C   0  0
    5.7265    0.0676   -0.5454 C   0  0
   -3.1380    0.4572    1.3114 H   0  0
   -4.2285   -1.5884    1.2017 H   0  0
    0.4469   -1.7637    1.8693 H   0  0
   -0.4718   -2.1890   -0.9961 H   0  0
    2.2403   -2.1007   -0.5984 H   0  0
   -3.0047   -2.7937   -0.6701 H   0  0
    1.7924   -4.1718    1.6141 H   0  0
    0.6275   -4.2426   -1.2438 H   0  0
   -5.8270    1.1263    0.0245 H   0  0
   -5.5571    0.7458    1.7354 H   0  0
   -4.0187    2.7080    1.9288 H   0  0
   -5.5827    3.2080    1.2746 H   0  0
   -5.2789   -1.0543   -1.6618 H   0  0
    0.2358   -6.1371    1.1247 H   0  0
    1.2149   -6.4924   -0.3259 H   0  0
   -2.0425    0.6714   -2.5100 H   0  0
    2.6986   -2.1409    2.2031 H   0  0
    2.9970   -4.2814   -0.9623 H   0  0
   -6.3823   -2.5453    0.7758 H   0  0
   -7.1611   -2.3247   -0.8975 H   0  0
   -0.9133   -7.2742   -0.4578 H   0  0
    3.1040    4.1310   -0.9435 H   0  0
   -0.8617    4.6614    0.6229 H   0  0
    2.7481    0.8184   -2.0051 H   0  0
    4.4142    2.2430    1.7065 H   0  0
   -0.9157    1.3473    1.9244 H   0  0
    6.4251    0.8662    1.3291 H   0  0
    1.9457    5.9906   -1.1430 H   0  0
    6.6164   -0.5357   -0.7021 H   0  0
    3.9920   -0.6053   -3.1343 H   0  0
  1 17  1  0
  1 19  1  0
  2 17  1  0
  2 21  1  0
  3 19  1  0
  3 27  1  0
  4 16  1  0
  4 30  1  0
  5 18  1  0
  5 59  1  0
  6 20  1  0
  6 60  1  0
  7 24  1  0
  7 28  1  0
  8 26  1  0
  8 63  1  0
  9 28  2  0
 10 30  2  0
 11 33  1  0
 11 68  1  0
 12 37  1  0
 12 70  1  0
 13 40  1  0
 13 72  1  0
 14 15  1  0
 14 22  1  0
 14 23  1  0
 14 43  1  0
 15 19  1  0
 15 25  1  0
 15 44  1  0
 16 17  1  0
 16 18  1  0
 16 45  1  0
 17 46  1  0
 18 20  1  0
 18 47  1  0
 19 48  1  0
 20 21  1  0
 20 49  1  0
 21 26  1  0
 21 50  1  0
 22 24  1  0
 22 51  1  0
 22 52  1  0
 23 27  2  0
 23 28  1  0
 24 53  1  0
 24 54  1  0
 25 29  2  0
 25 55  1  0
 26 56  1  0
 26 57  1  0
 27 58  1  0
 29 61  1  0
 29 62  1  0
 30 31  1  0
 31 32  2  0
 31 33  1  0
 32 34  1  0
 32 35  1  0
 33 36  2  0
 34 37  2  0
 34 64  1  0
 35 38  2  0
 35 39  1  0
 36 37  1  0
 36 65  1  0
 38 40  1  0
 38 66  1  0
 39 41  2  0
 39 67  1  0
 40 42  2  0
 41 42  1  0
 41 69  1  0
 42 71  1  0
M  END
> <Name>
115149

> <OBJECTID>
9223372178592038926

> <PUBCHEM_COMPOUND_CID>
115149

> <PUBCHEM_CONFORMER_RMSD>
1.2

> <PUBCHEM_CONFORMER_DIVERSEORDER>
1
72
19
36
24
55
51
30
62
32
44
7
73
21
65
23
59
71
27
25
28
38
35
67
61
33
52
64
29
66
6
58
54
69
49
48
45
31
57
43
68
50
26
34
53
47
14
18
60
63
39
70
42
20
40
41
17
11
9
3
12
46
16
22
13
37
8
10
56
4
15
5
2

> <PUBCHEM_MMFF94_PARTIAL_CHARGES>
55
1 -0.56
10 -0.57
11 -0.53
12 -0.53
13 -0.53
14 0.14
15 0.14
16 0.28
17 0.56
18 0.28
19 0.56
2 -0.56
20 0.28
21 0.28
23 -0.12
24 0.28
25 -0.29
26 0.28
27 -0.07
28 0.71
29 -0.3
3 -0.36
30 0.63
31 0.09
33 0.08
34 -0.15
36 -0.15
37 0.08
38 -0.15
39 -0.15
4 -0.43
40 0.08
41 -0.15
42 -0.15
5 -0.68
55 0.15
58 0.15
59 0.4
6 -0.68
60 0.4
61 0.15
62 0.15
63 0.4
64 0.15
65 0.15
66 0.15
67 0.15
68 0.45
69 0.15
7 -0.43
70 0.45
71 0.15
72 0.45
8 -0.68
9 -0.57

> <PUBCHEM_EFFECTIVE_ROTOR_COUNT>
10.4

> <PUBCHEM_PHARMACOPHORE_FEATURES>
20
1 1 acceptor
1 10 acceptor
1 11 donor
1 12 donor
1 13 donor
1 2 acceptor
1 29 hydrophobe
1 3 acceptor
1 5 acceptor
1 5 donor
1 6 acceptor
1 6 donor
1 8 acceptor
1 8 donor
1 9 acceptor
6 2 16 17 18 20 21 rings
6 3 14 15 19 23 27 rings
6 31 32 33 34 36 37 rings
6 35 38 39 40 41 42 rings
6 7 14 22 23 24 28 rings

> <PUBCHEM_HEAVY_ATOM_COUNT>
42

> <PUBCHEM_ATOM_DEF_STEREO_COUNT>
8

> <PUBCHEM_ATOM_UDEF_STEREO_COUNT>
0

> <PUBCHEM_BOND_DEF_STEREO_COUNT>
0

> <PUBCHEM_BOND_UDEF_STEREO_COUNT>
0

> <PUBCHEM_ISOTOPIC_ATOM_COUNT>
0

> <PUBCHEM_COMPONENT_COUNT>
1

> <PUBCHEM_CACTVS_TAUTO_COUNT>
36

> <PUBCHEM_CONFORMER_ID>
0001C1CD00000001

> <PUBCHEM_MMFF94_ENERGY>
126.1405

> <PUBCHEM_FEATURE_SELFOVERLAP>
101.626

> <PUBCHEM_SHAPE_FINGERPRINT>
10190108 129 18124345755497908961
10439779 11 18267289002070585298
10483366 6 18339373955050565046
11135926 11 18265610992344337700
11828532 37 17973446800033385823
12156800 1 16759460175744143253
12422481 6 17825363238479993432
13642711 20 18340486664796311806
140371 6 18055366979239514520
14394314 77 18411139100286303168
144659 178 16753535985951178030
14725015 67 18340761650029990565
14790565 3 18411699885364340234
15297060 5 18271524196185576712
15320467 1 18338233893955812091
15351339 4 18410571760764963922
17627616 140 18264773147092833819
17909252 39 17977669706388789960
19311894 1 18412544322947219660
20764821 26 18193255438944133999
20775438 99 17398068722764217820
463206 1 17835807400574435184
5776283 40 18047485696966159572
6371009 1 18265881630954517023

> <PUBCHEM_SHAPE_MULTIPOLES>
788.04
10.82
8.05
1.48
2.91
6.48
-0.26
-1.88
-2.08
-0.35
-0.34
-0.65
-0.39
-0.32

> <PUBCHEM_SHAPE_SELFOVERLAP>
1714.992

> <PUBCHEM_SHAPE_VOLUME>
421.4

> <PUBCHEM_COORDINATE_TYPE>
2
5
10

$$$$
119093
  SciTegic09112316443D

 47 49  0  0  1  0            999 V2000
   -2.0042    1.9633   -0.0204 O   0  0
    2.3682    0.1574   -0.0891 O   0  0
   -5.2067   -0.9452   -0.5346 O   0  0
   -1.3992    4.0950   -0.6485 O   0  0
    3.2846   -1.4627   -1.4422 O   0  0
    4.3471    1.5742    1.2552 O   0  0
   -1.9872   -0.3510    0.8349 C   0  0  1  0  0  0
   -1.8179   -1.8324    0.3948 C   0  0  1  0  0  0
   -1.4124    0.6563   -0.1809 C   0  0  2  0  0  0
    0.0805    0.9171    0.0292 C   0  0  1  0  0  0
   -3.1047   -2.0991   -0.4074 C   0  0
   -3.4894   -0.2472    1.0290 C   0  0
    1.0255   -0.1911   -0.4462 C   0  0  2  0  0  0
   -4.2061   -1.3877    0.3653 C   0  0  1  0  0  0
   -0.5298   -2.1888   -0.3240 C   0  0
    0.7380   -1.5577    0.1894 C   0  0
    0.1674    2.2489   -0.6487 C   0  0
   -1.1390    2.9199   -0.4677 C   0  0
   -4.0923    0.6691    1.7987 C   0  0
   -0.4619   -3.0518   -1.3528 C   0  0
    1.1442    2.8237   -1.3541 C   0  0
    3.3283   -0.7315   -0.4628 C   0  0
    4.4581   -0.6887    0.5083 C   0  0
    4.4192    0.2251    1.6972 C   0  0
    5.4893   -1.5151    0.2774 C   0  0
   -1.5036   -0.2048    1.8105 H   0  0
   -1.8530   -2.4521    1.3042 H   0  0
   -1.6340    0.3351   -1.2085 H   0  0
    0.2812    1.1125    1.0936 H   0  0
   -3.0311   -1.7142   -1.4334 H   0  0
   -3.3240   -3.1706   -0.4844 H   0  0
    0.9719   -0.2628   -1.5416 H   0  0
   -4.6522   -2.0545    1.1112 H   0  0
    0.6884   -1.4556    1.2824 H   0  0
    1.5520   -2.2763    0.0453 H   0  0
   -5.1675    0.6605    1.9411 H   0  0
   -3.5223    1.4409    2.3044 H   0  0
   -1.3354   -3.5556   -1.7491 H   0  0
    0.4864   -3.2822   -1.8287 H   0  0
   -4.8164   -0.2767   -1.1236 H   0  0
    2.0963    2.3308   -1.5108 H   0  0
    1.0219    3.8057   -1.7992 H   0  0
    5.3120    0.1192    2.3225 H   0  0
    3.5427    0.0075    2.3170 H   0  0
    6.3419   -1.5415    0.9489 H   0  0
    5.5248   -2.1856   -0.5748 H   0  0
    4.3016    2.1328    2.0498 H   0  0
  1  9  1  0
  1 18  1  0
  2 13  1  0
  2 22  1  0
  3 14  1  0
  3 40  1  0
  4 18  2  0
  5 22  2  0
  6 24  1  0
  6 47  1  0
  7  8  1  0
  7  9  1  0
  7 12  1  0
  7 26  1  0
  8 11  1  0
  8 15  1  0
  8 27  1  0
  9 10  1  0
  9 28  1  0
 10 13  1  0
 10 17  1  0
 10 29  1  0
 11 14  1  0
 11 30  1  0
 11 31  1  0
 12 14  1  0
 12 19  2  0
 13 16  1  0
 13 32  1  0
 14 33  1  0
 15 16  1  0
 15 20  2  0
 16 34  1  0
 16 35  1  0
 17 18  1  0
 17 21  2  0
 19 36  1  0
 19 37  1  0
 20 38  1  0
 20 39  1  0
 21 41  1  0
 21 42  1  0
 22 23  1  0
 23 24  1  0
 23 25  2  0
 24 43  1  0
 24 44  1  0
 25 45  1  0
 25 46  1  0
M  END
> <Name>
119093

> <OBJECTID>
9223372182887006222

> <PUBCHEM_COMPOUND_CID>
119093

> <PUBCHEM_CONFORMER_RMSD>
0.8

> <PUBCHEM_CONFORMER_DIVERSEORDER>
1
32
30
26
10
19
23
22
6
35
14
20
4
18
13
21
33
34
25
5
2
27
7
9
24
31
16
8
12
17
29
3
28
11
15

> <PUBCHEM_MMFF94_PARTIAL_CHARGES>
34
1 -0.43
10 0.14
12 -0.28
13 0.28
14 0.42
15 -0.28
16 0.14
17 -0.12
18 0.71
19 -0.3
2 -0.43
20 -0.3
21 -0.3
22 0.71
23 -0.12
24 0.42
25 -0.3
3 -0.68
36 0.15
37 0.15
38 0.15
39 0.15
4 -0.57
40 0.4
41 0.15
42 0.15
45 0.15
46 0.15
47 0.4
5 -0.57
6 -0.68
7 0.14
8 0.14
9 0.28

> <PUBCHEM_EFFECTIVE_ROTOR_COUNT>
5

> <PUBCHEM_PHARMACOPHORE_FEATURES>
10
1 25 hydrophobe
1 3 acceptor
1 3 donor
1 4 acceptor
1 5 acceptor
1 6 acceptor
1 6 donor
5 1 9 10 17 18 rings
5 7 8 11 12 14 rings
7 7 8 9 10 13 15 16 rings

> <PUBCHEM_HEAVY_ATOM_COUNT>
25

> <PUBCHEM_ATOM_DEF_STEREO_COUNT>
6

> <PUBCHEM_ATOM_UDEF_STEREO_COUNT>
0

> <PUBCHEM_BOND_DEF_STEREO_COUNT>
0

> <PUBCHEM_BOND_UDEF_STEREO_COUNT>
0

> <PUBCHEM_ISOTOPIC_ATOM_COUNT>
0

> <PUBCHEM_COMPONENT_COUNT>
1

> <PUBCHEM_CACTVS_TAUTO_COUNT>
1

> <PUBCHEM_CONFORMER_ID>
0001D13500000001

> <PUBCHEM_MMFF94_ENERGY>
70.9078

> <PUBCHEM_FEATURE_SELFOVERLAP>
50.798

> <PUBCHEM_SHAPE_FINGERPRINT>
10319926 262 18194100951566830346
10369192 42 17272844571332222560
1100329 8 18264491870080693003
11132069 177 18342184340666603755
11595378 159 18187909674230435346
12403259 226 18196653999975180134
12422481 6 18265636311413658809
12553582 1 18262254277622618719
12633257 1 18131630072024836018
12788726 201 18260843587419873972
13004483 165 18335686274306853000
13009979 54 18128270050247319107
13140716 1 18337686311785688353
13965767 371 17910984364744690939
14081887 123 18338511933148681232
14178342 30 18196387921981563009
14420673 8 17468748595085285290
15042514 8 18190458256141738326
15840311 113 17416149213084466939
16945 1 18187939386413508699
17357779 13 18339346522724907933
17980427 23 17703516575408163409
1813 80 17822286929183276116
21756936 100 15624798665468744968
22182313 1 17976839588005010501
2334 1 18122923176714476405
23366157 5 17536316182206581541
23402539 116 18410570665358353607
23557571 272 18339929221191176542
23559900 14 17845672407898235478
238 59 16094583261609575973
23845131 108 17402903219694487697
2748010 2 17760103817193474325
3009799 131 18262502776362657439
34934 24 18120376707621108004
350125 39 18413392030102680402
3524813 1 18272647922796782114
5265222 85 18338527344599810454
59554788 191 18260830375831810445
7064713 232 18202012014130539889
81228 2 18262812778047904816
90316 7 18407759235394978672
9862522 239 18268137656979481614
9925002 15 18055629770480363671

> <PUBCHEM_SHAPE_MULTIPOLES>
479.27
9.17
3.67
1.31
5.94
2.74
0.24
-3.69
3.58
-1.25
-1.67
0.26
0.1
0.05

> <PUBCHEM_SHAPE_SELFOVERLAP>
1022.666

> <PUBCHEM_SHAPE_VOLUME>
265.1

> <PUBCHEM_COORDINATE_TYPE>
2
5
10

$$$$
119245
  SciTegic09112316442D

133141  0  0  1  0            999 V2000
   10.8882    4.0403    0.0000 O   0  0
    9.1158    4.9351    0.0000 O   0  0
    9.4651   -4.2038    0.0000 O   0  0
    7.7331   -4.2038    0.0000 O   0  0
    9.4651   -6.2038    0.0000 O   0  0
    7.7331   -7.2038    0.0000 O   0  0
    6.0010   -6.2038    0.0000 O   0  0
   10.3312   -4.7038    0.0000 O   0  0
    6.0010   -3.2038    0.0000 O   0  0
    5.1350   -4.7038    0.0000 O   0  0
   11.1972   -7.2038    0.0000 O   0  0
   12.9292   -6.2038    0.0000 O   0  0
    4.2690   -7.2038    0.0000 O   0  0
   12.9292   -4.2038    0.0000 O   0  0
    2.5369   -6.2038    0.0000 O   0  0
    2.5369   -4.2038    0.0000 O   0  0
    9.4944    1.9931    0.0000 C   0  0  1  0  0  0
   10.3623    1.4965    0.0000 C   0  0  2  0  0  0
    9.6999    2.9657    0.0000 C   0  0  2  0  0  0
   10.3662    0.4965    0.0000 C   0  0  1  0  0  0
   10.6882    3.0726    0.0000 C   0  0  2  0  0  0
    9.5021   -0.0069    0.0000 C   0  0  2  0  0  0
   11.0968    2.1664    0.0000 C   0  0
    8.6303    1.4898    0.0000 C   0  0
    9.2976    3.8683    0.0000 C   0  0  1  0  0  0
    8.6342    0.4898    0.0000 C   0  0
    9.4901   -1.0484    0.0000 C   0  0  2  0  0  0
   10.0305    4.5311    0.0000 C   0  0  1  0  0  0
    8.6264    2.4898    0.0000 C   0  0
   11.2781   -0.0069    0.0000 C   0  0
   10.3901   -1.5727    0.0000 C   0  0
    8.5402   -1.5727    0.0000 C   0  0
    8.3192    4.0750    0.0000 C   0  0
   10.8378    5.1213    0.0000 C   0  0
   11.2902   -1.0484    0.0000 C   0  0
    8.6260   -0.5451    0.0000 C   0  0
   10.4027   -2.6576    0.0000 C   0  0
    8.5276   -2.6576    0.0000 C   0  0
    9.4651   -3.2038    0.0000 C   0  0  2  0  0  0
   10.7303    6.1155    0.0000 C   0  0
    9.8155    6.5195    0.0000 C   0  0  2  0  0  0
    9.0083    5.9293    0.0000 C   0  0
    9.7080    7.5138    0.0000 C   0  0
    8.5991   -4.7038    0.0000 C   0  0  2  0  0  0
    8.5991   -5.7038    0.0000 C   0  0  1  0  0  0
    7.7331   -6.2038    0.0000 C   0  0  2  0  0  0
    6.8671   -4.7038    0.0000 C   0  0  1  0  0  0
    6.8671   -5.7038    0.0000 C   0  0  1  0  0  0
    6.0010   -4.2038    0.0000 C   0  0
   10.3312   -5.7038    0.0000 C   0  0  2  0  0  0
   11.1972   -6.2038    0.0000 C   0  0  1  0  0  0
    5.1350   -5.7038    0.0000 C   0  0  2  0  0  0
   12.0632   -5.7038    0.0000 C   0  0  1  0  0  0
   11.1972   -4.2038    0.0000 C   0  0  2  0  0  0
    4.2690   -6.2038    0.0000 C   0  0  1  0  0  0
   12.0632   -4.7038    0.0000 C   0  0  2  0  0  0
    3.4030   -5.7038    0.0000 C   0  0  1  0  0  0
    4.2690   -4.2038    0.0000 C   0  0  2  0  0  0
    3.4030   -4.7038    0.0000 C   0  0  2  0  0  0
   11.1972   -3.2038    0.0000 C   0  0
    4.2690   -3.2038    0.0000 C   0  0
   11.1406    1.1548    0.0000 H   0  0
    8.8546    2.8762    0.0000 H   0  0
   11.0974    0.9300    0.0000 H   0  0
   11.5330    3.1658    0.0000 H   0  0
   10.2366   -0.4347    0.0000 H   0  0
   11.4642    1.6670    0.0000 H   0  0
   11.6321    2.4792    0.0000 H   0  0
    8.4160    2.0716    0.0000 H   0  0
    8.0201    1.3798    0.0000 H   0  0
    8.9078    3.3862    0.0000 H   0  0
    8.0232    0.5951    0.0000 H   0  0
    8.4244   -0.0936    0.0000 H   0  0
    8.9344    3.0279    0.0000 H   0  0
    8.0883    2.7977    0.0000 H   0  0
    8.3185    1.9517    0.0000 H   0  0
   11.8902   -0.1059    0.0000 H   0  0
   11.4804    0.5792    0.0000 H   0  0
    8.3379   -0.9866    0.0000 H   0  0
    7.9281   -1.6717    0.0000 H   0  0
    8.4473    4.6816    0.0000 H   0  0
    7.7125    4.2032    0.0000 H   0  0
    8.1910    3.4684    0.0000 H   0  0
   11.1112    4.5649    0.0000 H   0  0
   11.4333    5.2940    0.0000 H   0  0
   11.8295   -1.3543    0.0000 H   0  0
    8.9380   -0.0093    0.0000 H   0  0
    8.0902   -0.2330    0.0000 H   0  0
    8.3139   -1.0808    0.0000 H   0  0
   10.6185   -3.2389    0.0000 H   0  0
   11.0123   -2.5445    0.0000 H   0  0
    7.9180   -2.5445    0.0000 H   0  0
    8.3118   -3.2389    0.0000 H   0  0
   10.0027   -3.5127    0.0000 H   0  0
   11.3489    6.0741    0.0000 H   0  0
   10.8785    6.7176    0.0000 H   0  0
   10.3160    6.8855    0.0000 H   0  0
    8.7348    6.4858    0.0000 H   0  0
    8.4128    5.7567    0.0000 H   0  0
   10.3244    7.5804    0.0000 H   0  0
    9.6414    8.1302    0.0000 H   0  0
    9.0916    7.4471    0.0000 H   0  0
    8.5991   -4.0838    0.0000 H   0  0
    8.5991   -6.3238    0.0000 H   0  0
    7.1962   -6.5138    0.0000 H   0  0
    6.8671   -4.0838    0.0000 H   0  0
    6.3301   -5.3938    0.0000 H   0  0
    5.3905   -4.0961    0.0000 H   0  0
    5.7890   -4.7864    0.0000 H   0  0
    9.7942   -5.3938    0.0000 H   0  0
    7.1962   -7.5138    0.0000 H   0  0
   11.7341   -6.5138    0.0000 H   0  0
    5.1350   -6.3238    0.0000 H   0  0
    5.4641   -2.8938    0.0000 H   0  0
   12.6002   -5.3938    0.0000 H   0  0
   10.6603   -3.8938    0.0000 H   0  0
    3.7320   -6.5138    0.0000 H   0  0
   12.0632   -4.0838    0.0000 H   0  0
    2.8660   -5.3938    0.0000 H   0  0
   11.7341   -7.5138    0.0000 H   0  0
    4.8059   -3.8938    0.0000 H   0  0
    3.4030   -4.0838    0.0000 H   0  0
   11.8172   -3.2038    0.0000 H   0  0
   11.1972   -2.5838    0.0000 H   0  0
   10.5772   -3.2038    0.0000 H   0  0
   13.4662   -5.8938    0.0000 H   0  0
    3.7320   -7.5138    0.0000 H   0  0
   13.4662   -4.5138    0.0000 H   0  0
    4.8890   -3.2038    0.0000 H   0  0
    4.2690   -2.5838    0.0000 H   0  0
    3.6490   -3.2038    0.0000 H   0  0
    2.0000   -5.8938    0.0000 H   0  0
    2.5369   -3.5838    0.0000 H   0  0
  1 21  1  0
 28  1  1  6
  2 28  1  0
  2 42  1  0
 39  3  1  1
 44  3  1  1
  4 44  1  0
  4 47  1  0
 45  5  1  6
 50  5  1  6
 46  6  1  1
  6111  1  0
 48  7  1  6
 52  7  1  1
  8 50  1  0
  8 54  1  0
  9 49  1  0
  9114  1  0
 10 52  1  0
 10 58  1  0
 51 11  1  1
 11120  1  0
 53 12  1  1
 12126  1  0
 55 13  1  6
 13127  1  0
 56 14  1  6
 14128  1  0
 57 15  1  6
 15132  1  0
 59 16  1  1
 16133  1  0
 17 18  1  0
 17 19  1  0
 17 24  1  0
 17 29  1  1
 18 20  1  0
 18 23  1  0
 18 62  1  6
 19 21  1  0
 19 25  1  0
 19 63  1  6
 20 22  1  0
 20 30  1  0
 20 64  1  1
 21 23  1  0
 21 65  1  6
 22 26  1  0
 22 27  1  0
 22 66  1  6
 23 67  1  0
 23 68  1  0
 24 26  1  0
 24 69  1  0
 24 70  1  0
 25 28  1  0
 25 33  1  6
 25 71  1  0
 26 72  1  0
 26 73  1  0
 27 31  1  0
 27 32  1  0
 27 36  1  1
 28 34  1  0
 29 74  1  0
 29 75  1  0
 29 76  1  0
 30 35  1  0
 30 77  1  0
 30 78  1  0
 31 35  2  0
 31 37  1  0
 32 38  1  0
 32 79  1  0
 32 80  1  0
 33 81  1  0
 33 82  1  0
 33 83  1  0
 34 40  1  0
 34 84  1  0
 34 85  1  0
 35 86  1  0
 36 87  1  0
 36 88  1  0
 36 89  1  0
 37 39  1  0
 37 90  1  0
 37 91  1  0
 38 39  1  0
 38 92  1  0
 38 93  1  0
 39 94  1  0
 40 41  1  0
 40 95  1  0
 40 96  1  0
 41 42  1  0
 41 43  1  6
 41 97  1  0
 42 98  1  0
 42 99  1  0
 43100  1  0
 43101  1  0
 43102  1  0
 44 45  1  0
 44103  1  0
 45 46  1  0
 45104  1  0
 46 48  1  0
 46105  1  0
 47 48  1  0
 47 49  1  1
 47106  1  0
 48107  1  0
 49108  1  0
 49109  1  0
 50 51  1  0
 50110  1  0
 51 53  1  0
 51112  1  0
 52 55  1  0
 52113  1  0
 53 56  1  0
 53115  1  0
 54 56  1  0
 54 60  1  1
 54116  1  0
 55 57  1  0
 55117  1  0
 56118  1  0
 57 59  1  0
 57119  1  0
 58 59  1  0
 58 61  1  6
 58121  1  0
 59122  1  0
 60123  1  0
 60124  1  0
 60125  1  0
 61129  1  0
 61130  1  0
 61131  1  0
M  END
> <Name>
119245

> <OBJECTID>
9223372187181973518

> <PUBCHEM_COMPOUND_CID>
119245

> <PUBCHEM_COMPOUND_CANONICALIZED>
1

> <PUBCHEM_CACTVS_COMPLEXITY>
1600

> <PUBCHEM_CACTVS_HBOND_ACCEPTOR>
16

> <PUBCHEM_CACTVS_HBOND_DONOR>
8

> <PUBCHEM_CACTVS_ROTATABLE_BOND>
7

> <PUBCHEM_CACTVS_SUBSKEYS>
AAADcfB8PgAAAAAAAAAAAAAAAAAAAaIAAAA0aJEiAAASAGCAAAAAGgAACAAADxSwgAMCCAAABgCAAiBCAAAAAAAgAAAACAAAAAgREAIAAQAiQAAFwAAPAAPA4PwPgAAAAAAAAADAAAQAACAAAYAADAAAAA==

> <PUBCHEM_IUPAC_OPENEYE_NAME>
(2S,3R,4R,5R,6S)-2-[(2R,3S,4S,5R,6R)-4-hydroxy-2-(hydroxymethyl)-6-[(1S,2S,4S,5'R,6R,7S,8R,9S,12S,13R,16S)-5',7,9,13-tetramethylspiro[5-oxapentacyclo[10.8.0.02,9.04,8.013,18]icos-18-ene-6,2'-tetrahydropyran]-16-yl]oxy-5-[(2S,3R,4R,5R,6S)-3,4,5-trihydroxy-6-methyl-tetrahydropyran-2-yl]oxy-tetrahydropyran-3-yl]oxy-6-methyl-tetrahydropyran-3,4,5-triol

> <PUBCHEM_IUPAC_CAS_NAME>
(2S,3R,4R,5R,6S)-2-[[(2R,3S,4S,5R,6R)-4-hydroxy-2-(hydroxymethyl)-6-[[(1S,2S,4S,5'R,6R,7S,8R,9S,12S,13R,16S)-5',7,9,13-tetramethyl-16-spiro[5-oxapentacyclo[10.8.0.02,9.04,8.013,18]eicos-18-ene-6,2'-oxane]yl]oxy]-5-[[(2S,3R,4R,5R,6S)-3,4,5-trihydroxy-6-methyl-2-oxanyl]oxy]-3-oxanyl]oxy]-6-methyloxane-3,4,5-triol

> <PUBCHEM_IUPAC_NAME_MARKUP>
(2<I>S</I>,3<I>R</I>,4<I>R</I>,5<I>R</I>,6<I>S</I>)-2-[(2<I>R</I>,3<I>S</I>,4<I>S</I>,5<I>R</I>,6<I>R</I>)-4-hydroxy-2-(hydroxymethyl)-6-[(1<I>S</I>,2<I>S</I>,4<I>S</I>,5&apos;<I>R</I>,6<I>R</I>,7<I>S</I>,8<I>R</I>,9<I>S</I>,12<I>S</I>,13<I>R</I>,16<I>S</I>)-5&apos;,7,9,13-tetramethylspiro[5-oxapentacyclo[10.8.0.0<SUP>2,9</SUP>.0<SUP>4,8</SUP>.0<SUP>13,18</SUP>]icos-18-ene-6,2&apos;-oxane]-16-yl]oxy-5-[(2<I>S</I>,3<I>R</I>,4<I>R</I>,5<I>R</I>,6<I>S</I>)-3,4,5-trihydroxy-6-methyloxan-2-yl]oxyoxan-3-yl]oxy-6-methyloxane-3,4,5-triol

> <PUBCHEM_IUPAC_NAME>
(2S,3R,4R,5R,6S)-2-[(2R,3S,4S,5R,6R)-4-hydroxy-2-(hydroxymethyl)-6-[(1S,2S,4S,5'R,6R,7S,8R,9S,12S,13R,16S)-5',7,9,13-tetramethylspiro[5-oxapentacyclo[10.8.0.02,9.04,8.013,18]icos-18-ene-6,2'-oxane]-16-yl]oxy-5-[(2S,3R,4R,5R,6S)-3,4,5-trihydroxy-6-methyloxan-2-yl]oxyoxan-3-yl]oxy-6-methyloxane-3,4,5-triol

> <PUBCHEM_IUPAC_SYSTEMATIC_NAME>
(2S,3R,4R,5R,6S)-2-[(2R,3S,4S,5R,6R)-2-(hydroxymethyl)-5-[(2S,3R,4R,5R,6S)-6-methyl-3,4,5-tris(oxidanyl)oxan-2-yl]oxy-4-oxidanyl-6-[(1S,2S,4S,5'R,6R,7S,8R,9S,12S,13R,16S)-5',7,9,13-tetramethylspiro[5-oxapentacyclo[10.8.0.02,9.04,8.013,18]icos-18-ene-6,2'-oxane]-16-yl]oxy-oxan-3-yl]oxy-6-methyl-oxane-3,4,5-triol

> <PUBCHEM_IUPAC_TRADITIONAL_NAME>
(2S,3R,4R,5R,6S)-2-[(2R,3S,4S,5R,6R)-4-hydroxy-2-methylol-6-[(1S,2S,4S,5'R,6R,7S,8R,9S,12S,13R,16S)-5',7,9,13-tetramethylspiro[5-oxapentacyclo[10.8.0.02,9.04,8.013,18]eicos-18-ene-6,2'-tetrahydropyran]-16-yl]oxy-5-[(2S,3R,4R,5R,6S)-3,4,5-trihydroxy-6-methyl-tetrahydropyran-2-yl]oxy-tetrahydropyran-3-yl]oxy-6-methyl-tetrahydropyran-3,4,5-triol

> <PUBCHEM_IUPAC_INCHI>
InChI=1S/C45H72O16/c1-19-9-14-45(54-18-19)20(2)30-28(61-45)16-27-25-8-7-23-15-24(10-12-43(23,5)26(25)11-13-44(27,30)6)57-42-39(60-41-36(52)34(50)32(48)22(4)56-41)37(53)38(29(17-46)58-42)59-40-35(51)33(49)31(47)21(3)55-40/h7,19-22,24-42,46-53H,8-18H2,1-6H3/t19-,20+,21+,22+,24+,25-,26+,27+,28+,29-,30+,31+,32+,33-,34-,35-,36-,37+,38-,39-,40+,41+,42-,43+,44+,45-/m1/s1

> <PUBCHEM_IUPAC_INCHIKEY>
VNONINPVFQTJOC-ZGXDEBHDSA-N

> <PUBCHEM_XLOGP3_AA>
1.3

> <PUBCHEM_EXACT_MASS>
868.4820362

> <PUBCHEM_MOLECULAR_FORMULA>
C45H72O16

> <PUBCHEM_MOLECULAR_WEIGHT>
869

> <PUBCHEM_OPENEYE_CAN_SMILES>
CC1CCC2(C(C3C(O2)CC4C3(CCC5C4CC=C6C5(CCC(C6)OC7C(C(C(C(O7)CO)OC8C(C(C(C(O8)C)O)O)O)O)OC9C(C(C(C(O9)C)O)O)O)C)C)C)OC1

> <PUBCHEM_OPENEYE_ISO_SMILES>
C[C@@H]1CC[C@@]2([C@H]([C@H]3[C@@H](O2)C[C@@H]4[C@@]3(CC[C@H]5[C@H]4CC=C6[C@@]5(CC[C@@H](C6)O[C@H]7[C@@H]([C@H]([C@@H]([C@H](O7)CO)O[C@H]8[C@@H]([C@@H]([C@H]([C@@H](O8)C)O)O)O)O)O[C@H]9[C@@H]([C@@H]([C@H]([C@@H](O9)C)O)O)O)C)C)C)OC1

> <PUBCHEM_CACTVS_TPSA>
236

> <PUBCHEM_MONOISOTOPIC_WEIGHT>
868.4820362

> <PUBCHEM_TOTAL_CHARGE>
0

> <PUBCHEM_HEAVY_ATOM_COUNT>
61

> <PUBCHEM_ATOM_DEF_STEREO_COUNT>
26

> <PUBCHEM_ATOM_UDEF_STEREO_COUNT>
0

> <PUBCHEM_BOND_DEF_STEREO_COUNT>
0

> <PUBCHEM_BOND_UDEF_STEREO_COUNT>
0

> <PUBCHEM_ISOTOPIC_ATOM_COUNT>
0

> <PUBCHEM_COMPONENT_COUNT>
1

> <PUBCHEM_CACTVS_TAUTO_COUNT>
-1

> <PUBCHEM_COORDINATE_TYPE>
1
5
255

> <PUBCHEM_BONDANNOTATIONS>
28  1  6
51  11  5
53  12  5
55  13  6
56  14  6
57  15  6
59  16  5
17  29  5
18  62  6
19  63  6
20  64  5
21  65  6
22  66  6
25  33  6
27  36  5
39  3  5
44  3  5
41  43  6
47  49  5
45  5  6
50  5  6
54  60  5
58  61  6
46  6  5
48  7  6
52  7  5

$$$$
119404
  SciTegic09112316443D

 35 37  0  0  1  0            999 V2000
   -1.6519    2.5266   -0.4919 O   0  0
   -1.8984   -2.7674   -0.4566 O   0  0
    5.7803   -0.8330    0.8513 O   0  0
   -2.7683    0.5807    0.0840 N   0  0
   -0.6677   -0.8258   -0.6791 N   0  0
   -2.6904   -0.7633    0.6391 C   0  0  1  0  0  0
   -4.1378   -1.2399    0.6461 C   0  0
   -4.1321    1.0780    0.0517 C   0  0
   -4.9200    0.0548    0.8577 C   0  0
   -0.3660    0.4978   -0.1408 C   0  0  2  0  0  0
   -1.6458    1.3236   -0.2441 C   0  0
   -1.7611   -1.5654   -0.2472 C   0  0
    0.7900    1.1437   -0.8876 C   0  0
    2.1226    0.6163   -0.4232 C   0  0
    2.7796    1.2472    0.6233 C   0  0
    2.6720   -0.4932   -1.0489 C   0  0
    4.0132    0.7582    1.0531 C   0  0
    3.9056   -0.9824   -0.6190 C   0  0
    4.5763   -0.3566    0.4320 C   0  0
   -2.2756   -0.6996    1.6517 H   0  0
   -4.3296   -1.9785    1.4301 H   0  0
   -4.4154   -1.6895   -0.3153 H   0  0
   -4.4519    1.0997   -0.9955 H   0  0
   -4.1895    2.0902    0.4618 H   0  0
   -5.9636   -0.0194    0.5400 H   0  0
   -4.9039    0.3241    1.9207 H   0  0
   -0.1393    0.3822    0.9272 H   0  0
    0.0334   -1.3111   -1.2292 H   0  0
    0.7919    2.2321   -0.7427 H   0  0
    0.6880    1.0012   -1.9720 H   0  0
    2.3484    2.1143    1.1155 H   0  0
    2.1667   -0.9841   -1.8753 H   0  0
    4.5250    1.2544    1.8733 H   0  0
    4.3403   -1.8498   -1.1083 H   0  0
    6.0996   -0.2803    1.5853 H   0  0
  1 11  2  0
  2 12  2  0
  3 19  1  0
  3 35  1  0
  4  6  1  0
  4  8  1  0
  4 11  1  0
  5 10  1  0
  5 12  1  0
  5 28  1  0
  6  7  1  0
  6 12  1  0
  6 20  1  0
  7  9  1  0
  7 21  1  0
  7 22  1  0
  8  9  1  0
  8 23  1  0
  8 24  1  0
  9 25  1  0
  9 26  1  0
 10 11  1  0
 10 13  1  0
 10 27  1  0
 13 14  1  0
 13 29  1  0
 13 30  1  0
 14 15  2  0
 14 16  1  0
 15 17  1  0
 15 31  1  0
 16 18  2  0
 16 32  1  0
 17 19  2  0
 17 33  1  0
 18 19  1  0
 18 34  1  0
M  END
> <Name>
119404

> <OBJECTID>
9223372191476940814

> <PUBCHEM_COMPOUND_CID>
119404

> <PUBCHEM_CONFORMER_RMSD>
0.6

> <PUBCHEM_CONFORMER_DIVERSEORDER>
1
4
5
3
6
2

> <PUBCHEM_MMFF94_PARTIAL_CHARGES>
23
1 -0.57
10 0.36
11 0.57
12 0.57
13 0.14
14 -0.14
15 -0.15
16 -0.15
17 -0.15
18 -0.15
19 0.08
2 -0.57
28 0.37
3 -0.53
31 0.15
32 0.15
33 0.15
34 0.15
35 0.45
4 -0.66
5 -0.73
6 0.36
8 0.3

> <PUBCHEM_EFFECTIVE_ROTOR_COUNT>
3

> <PUBCHEM_PHARMACOPHORE_FEATURES>
7
1 1 acceptor
1 2 acceptor
1 3 donor
1 5 donor
5 4 6 7 8 9 rings
6 14 15 16 17 18 19 rings
6 4 5 6 10 11 12 rings

> <PUBCHEM_HEAVY_ATOM_COUNT>
19

> <PUBCHEM_ATOM_DEF_STEREO_COUNT>
2

> <PUBCHEM_ATOM_UDEF_STEREO_COUNT>
0

> <PUBCHEM_BOND_DEF_STEREO_COUNT>
0

> <PUBCHEM_BOND_UDEF_STEREO_COUNT>
0

> <PUBCHEM_ISOTOPIC_ATOM_COUNT>
0

> <PUBCHEM_COMPONENT_COUNT>
1

> <PUBCHEM_CACTVS_TAUTO_COUNT>
4

> <PUBCHEM_CONFORMER_ID>
0001D26C00000001

> <PUBCHEM_MMFF94_ENERGY>
59.4202

> <PUBCHEM_FEATURE_SELFOVERLAP>
35.62

> <PUBCHEM_SHAPE_FINGERPRINT>
11132069 177 18343308076099560431
12119455 92 17346598564911871765
12236239 1 17167867443842928108
12251169 10 18342457054068117244
12633257 1 18131351938179052232
128620 24 10735879473519171057
13140716 1 18267306606566648051
13533116 47 17346047666362714222
13544592 145 18130240258840679862
13551218 46 18335138635654015954
13675066 3 18409452522162122739
13862211 1 18336830896551580555
14341114 176 18342458149691167664
14420673 8 18192714445460304546
14866123 147 16761432713027448462
15042514 8 18336551624734876275
15375358 24 18060703883530030046
15885798 251 18261115196498249861
17804303 29 18411705387122604596
1813 80 17313105267434028884
19141452 34 18343303699443801575
19784866 240 16515402945900616370
200 152 14634586069061705732
20279233 1 18131355206511981804
20361792 2 16950276338894761156
20510252 161 18200878366155838953
20645477 70 12973878187863459664
20871999 31 7853583417231749374
21033648 29 18058714828262063408
21065199 12 18343300375233826224
21637258 2 16081371920863598745
22182313 1 18193004725150776389
22646028 28 17749390377618627344
22854114 59 17775287157686479468
23366157 5 17754742950447055877
23402539 116 18343295973161438325
23559900 14 18200329783210576732
26918003 58 18131068225550825512
2838139 119 14691185530677918875
351380 180 17775566420697159953
351380 3 17603300441148159634
42 15 18408042909626994912
4340502 62 15482681178071671015
465052 167 17677067831570166491
474 4 13614233811271667874
5104073 3 18338244867876958937
559249 180 17823127935166206354
58807428 26 18338249167445306803
5924683 9 17845082042799863887
69090 78 18201717353593687343
9709674 26 18273500082641475254

> <PUBCHEM_SHAPE_MULTIPOLES>
363.44
10.7
1.96
0.99
4.85
0.25
-0.04
1.84
-3.69
-1.26
0.3
0.5
0
0.38

> <PUBCHEM_SHAPE_SELFOVERLAP>
784.113

> <PUBCHEM_SHAPE_VOLUME>
199.5

> <PUBCHEM_COORDINATE_TYPE>
2
5
10

$$$$
126154
  SciTegic09112316443D

 21 22  0  0  1  0            999 V2000
   -0.6680   -2.6567   -0.3372 O   0  0
    2.0022    1.9280   -0.1772 O   0  0
   -0.0023    0.7689   -0.0119 N   0  0
    1.3294   -1.5085   -0.1782 N   0  0
   -0.6975   -0.3959    0.5188 C   0  0  1  0  0  0
   -2.1479   -0.1704    0.1109 C   0  0
   -2.2713    1.3520    0.1272 C   0  0
   -0.9232    1.8211   -0.4030 C   0  0
   -0.0505   -1.6269   -0.0810 C   0  0
    1.3756    0.8887    0.0104 C   0  0
    2.0535   -0.4005    0.4211 C   0  0
   -0.5753   -0.4075    1.6082 H   0  0
   -2.8530   -0.6555    0.7925 H   0  0
   -2.3422   -0.5490   -0.9003 H   0  0
   -3.1102    1.7195   -0.4699 H   0  0
   -2.4077    1.6984    1.1589 H   0  0
   -0.9171    1.8766   -1.4967 H   0  0
   -0.6097    2.7869    0.0037 H   0  0
    3.0797   -0.4224    0.0459 H   0  0
    2.0382   -0.5046    1.5096 H   0  0
    1.8574   -2.3062   -0.5187 H   0  0
  1  9  2  0
  2 10  2  0
  3  5  1  0
  3  8  1  0
  3 10  1  0
  4  9  1  0
  4 11  1  0
  4 21  1  0
  5  6  1  0
  5  9  1  0
  5 12  1  0
  6  7  1  0
  6 13  1  0
  6 14  1  0
  7  8  1  0
  7 15  1  0
  7 16  1  0
  8 17  1  0
  8 18  1  0
 10 11  1  0
 11 19  1  0
 11 20  1  0
M  END
> <Name>
126154

> <OBJECTID>
9223372195771908110

> <PUBCHEM_COMPOUND_CID>
126154

> <PUBCHEM_CONFORMER_RMSD>
0.4

> <PUBCHEM_CONFORMER_DIVERSEORDER>
1

> <PUBCHEM_MMFF94_PARTIAL_CHARGES>
10
1 -0.57
10 0.57
11 0.36
2 -0.57
21 0.37
3 -0.66
4 -0.73
5 0.36
8 0.3
9 0.57

> <PUBCHEM_EFFECTIVE_ROTOR_COUNT>
1

> <PUBCHEM_PHARMACOPHORE_FEATURES>
5
1 1 acceptor
1 2 acceptor
1 4 donor
5 3 5 6 7 8 rings
6 3 4 5 9 10 11 rings

> <PUBCHEM_HEAVY_ATOM_COUNT>
11

> <PUBCHEM_ATOM_DEF_STEREO_COUNT>
1

> <PUBCHEM_ATOM_UDEF_STEREO_COUNT>
0

> <PUBCHEM_BOND_DEF_STEREO_COUNT>
0

> <PUBCHEM_BOND_UDEF_STEREO_COUNT>
0

> <PUBCHEM_ISOTOPIC_ATOM_COUNT>
0

> <PUBCHEM_COMPONENT_COUNT>
1

> <PUBCHEM_CACTVS_TAUTO_COUNT>
2

> <PUBCHEM_CONFORMER_ID>
0001ECCA00000001

> <PUBCHEM_MMFF94_ENERGY>
34.0432

> <PUBCHEM_FEATURE_SELFOVERLAP>
25.47

> <PUBCHEM_SHAPE_FINGERPRINT>
12423570 1 12027069040848956466
16945 1 18122063100659845097
18185500 45 17329711431918921618
193761 8 18338797930784021994
21040471 1 18411699919550043928
23552423 10 18265616477011884165
241688 4 16897368607774974697
2748010 2 18408888425447359973
29004967 10 17835241138647035499
5084963 1 18130784521158962491
528886 8 18195521485164255721
66348 1 18409451401043854509

> <PUBCHEM_SHAPE_MULTIPOLES>
204.67
2.8
2.44
0.66
0.82
0.43
0.03
-0.58
0.16
-0.67
-0.38
0.02
0.01
0.13

> <PUBCHEM_SHAPE_SELFOVERLAP>
430.281

> <PUBCHEM_SHAPE_VOLUME>
115.5

> <PUBCHEM_COORDINATE_TYPE>
2
5
10

$$$$
146798
  SciTegic09112316443D

 68 73  0  0  1  0            999 V2000
   -1.4464    0.4826    1.6338 O   0  0
    1.1274   -0.2925   -0.7883 O   0  0
   -0.5193    3.3885   -0.4224 O   0  0
    2.1586   -2.8880   -3.2147 O   0  0
    3.0698    3.8459    0.4818 O   0  0
    5.2017    1.2693   -2.8901 O   0  0
    3.2725    1.2472    2.4334 O   0  0
    0.8877   -2.0594    4.8693 O   0  0
   -4.6816    0.3047   -2.3960 O   0  0
   -6.5812    2.1288   -1.5088 O   0  0
   -0.1290   -4.7847    1.4569 O   0  0
   -2.5738   -5.2174    0.2086 O   0  0
    0.9714    1.9508    0.8326 C   0  0  2  0  0  0
   -0.3818    2.0627    0.0925 C   0  0  1  0  0  0
    2.1023    1.7519   -0.1723 C   0  0
   -1.5421    1.7934    1.0607 C   0  0  1  0  0  0
    0.9383    0.8947    1.9220 C   0  0
    2.1404    0.6092   -0.9760 C   0  0
    3.1896    0.4187   -1.8820 C   0  0
    2.3460   -1.9073   -2.1996 C   0  0  2  0  0  0
    0.9927   -1.3013   -1.8025 C   0  0  1  0  0  0
    3.2522   -0.8059   -2.7433 C   0  0
   -0.2488    0.2266    2.2451 C   0  0
    3.0960    2.7226   -0.2890 C   0  0
   -2.8915    1.8808    0.3701 C   0  0
    2.0987    0.5855    2.6524 C   0  0
    4.1774    1.4058   -1.9996 C   0  0
    4.1312    2.5517   -1.2051 C   0  0
    0.0395   -2.3509   -1.2614 C   0  0
   -0.2614   -0.7762    3.2192 C   0  0
    2.0818   -0.4024    3.6385 C   0  0
   -3.1740    1.0454   -0.7081 C   0  0
    0.9037   -1.0896    3.9152 C   0  0
   -3.8414    2.7964    0.8170 C   0  0
    0.3932   -3.0961   -0.1389 C   0  0
   -1.1852   -2.5656   -1.8895 C   0  0
   -4.4135    1.1260   -1.3430 C   0  0
   -5.0808    2.8771    0.1823 C   0  0
   -5.3669    2.0418   -0.8977 C   0  0
   -0.4826   -4.0614    0.3583 C   0  0
   -2.0609   -3.5308   -1.3925 C   0  0
   -1.7098   -4.2785   -0.2686 C   0  0
    1.1047    2.8865    1.3879 H   0  0
   -0.4473    1.3921   -0.7659 H   0  0
   -1.5253    2.5299    1.8778 H   0  0
    2.8348   -2.3810   -1.3394 H   0  0
    0.5289   -0.8317   -2.6819 H   0  0
    2.9541   -0.5405   -3.7660 H   0  0
    4.2770   -1.1929   -2.8037 H   0  0
    4.9000    3.3154   -1.2942 H   0  0
   -0.5217    4.0061    0.3287 H   0  0
   -1.1883   -1.3008    3.4396 H   0  0
    2.9842   -0.6421    4.1957 H   0  0
   -2.4454    0.3189   -1.0575 H   0  0
   -3.6329    3.4538    1.6566 H   0  0
    3.0356   -3.2354   -3.4511 H   0  0
    1.3423   -2.9216    0.3614 H   0  0
   -1.4733   -1.9899   -2.7647 H   0  0
    2.1676    4.2069    0.4726 H   0  0
    5.7833    2.0465   -2.8299 H   0  0
    3.9567    0.8966    3.0288 H   0  0
   -5.8144    3.5950    0.5393 H   0  0
   -3.0141   -3.6888   -1.8898 H   0  0
   -0.0097   -2.4299    4.9277 H   0  0
   -5.5819    0.4957   -2.7115 H   0  0
   -7.1098    2.8151   -1.0666 H   0  0
    0.7487   -4.4941    1.7591 H   0  0
   -3.3702   -5.2277   -0.3498 H   0  0
  1 16  1  0
  1 23  1  0
  2 18  1  0
  2 21  1  0
  3 14  1  0
  3 51  1  0
  4 20  1  0
  4 56  1  0
  5 24  1  0
  5 59  1  0
  6 27  1  0
  6 60  1  0
  7 26  1  0
  7 61  1  0
  8 33  1  0
  8 64  1  0
  9 37  1  0
  9 65  1  0
 10 39  1  0
 10 66  1  0
 11 40  1  0
 11 67  1  0
 12 42  1  0
 12 68  1  0
 13 14  1  0
 13 15  1  0
 13 17  1  0
 13 43  1  0
 14 16  1  0
 14 44  1  0
 15 18  1  0
 15 24  2  0
 16 25  1  0
 16 45  1  0
 17 23  1  0
 17 26  2  0
 18 19  2  0
 19 22  1  0
 19 27  1  0
 20 21  1  0
 20 22  1  0
 20 46  1  0
 21 29  1  0
 21 47  1  0
 22 48  1  0
 22 49  1  0
 23 30  2  0
 24 28  1  0
 25 32  2  0
 25 34  1  0
 26 31  1  0
 27 28  2  0
 28 50  1  0
 29 35  2  0
 29 36  1  0
 30 33  1  0
 30 52  1  0
 31 33  2  0
 31 53  1  0
 32 37  1  0
 32 54  1  0
 34 38  2  0
 34 55  1  0
 35 40  1  0
 35 57  1  0
 36 41  2  0
 36 58  1  0
 37 39  2  0
 38 39  1  0
 38 62  1  0
 40 42  2  0
 41 42  1  0
 41 63  1  0
M  END
> <Name>
146798

> <OBJECTID>
9223372200066875406

> <PUBCHEM_COMPOUND_CID>
146798

> <PUBCHEM_CONFORMER_RMSD>
1

> <PUBCHEM_CONFORMER_DIVERSEORDER>
1
16
20
31
41
38
22
3
36
29
10
28
24
2
39
21
33
32
9
37
4
19
30
34
11
26
25
40
12
27
18
35
7
23
17
15
6
8
13
5
14

> <PUBCHEM_MMFF94_PARTIAL_CHARGES>
61
1 -0.36
10 -0.53
11 -0.53
12 -0.53
13 0.29
14 0.28
15 -0.14
16 0.42
17 -0.14
18 0.08
19 -0.14
2 -0.36
20 0.28
21 0.42
22 0.14
23 0.08
24 0.08
25 -0.14
26 0.08
27 0.08
28 -0.15
29 -0.14
3 -0.68
30 -0.15
31 -0.15
32 -0.15
33 0.08
34 -0.15
35 -0.15
36 -0.15
37 0.08
38 -0.15
39 0.08
4 -0.68
40 0.08
41 -0.15
42 0.08
5 -0.53
50 0.15
51 0.4
52 0.15
53 0.15
54 0.15
55 0.15
56 0.4
57 0.15
58 0.15
59 0.45
6 -0.53
60 0.45
61 0.45
62 0.15
63 0.15
64 0.45
65 0.45
66 0.45
67 0.45
68 0.45
7 -0.53
8 -0.53
9 -0.53

> <PUBCHEM_EFFECTIVE_ROTOR_COUNT>
4.6

> <PUBCHEM_PHARMACOPHORE_FEATURES>
20
1 1 acceptor
1 10 donor
1 11 donor
1 12 donor
1 2 acceptor
1 3 acceptor
1 3 donor
1 4 acceptor
1 4 donor
1 5 donor
1 6 donor
1 7 donor
1 8 donor
1 9 donor
6 1 13 14 16 17 23 rings
6 15 18 19 24 27 28 rings
6 17 23 26 30 31 33 rings
6 2 18 19 20 21 22 rings
6 25 32 34 37 38 39 rings
6 29 35 36 40 41 42 rings

> <PUBCHEM_HEAVY_ATOM_COUNT>
42

> <PUBCHEM_ATOM_DEF_STEREO_COUNT>
5

> <PUBCHEM_ATOM_UDEF_STEREO_COUNT>
0

> <PUBCHEM_BOND_DEF_STEREO_COUNT>
0

> <PUBCHEM_BOND_UDEF_STEREO_COUNT>
0

> <PUBCHEM_ISOTOPIC_ATOM_COUNT>
0

> <PUBCHEM_COMPONENT_COUNT>
1

> <PUBCHEM_CACTVS_TAUTO_COUNT>
986

> <PUBCHEM_CONFORMER_ID>
00023D6E00000001

> <PUBCHEM_MMFF94_ENERGY>
134.2918

> <PUBCHEM_FEATURE_SELFOVERLAP>
101.58

> <PUBCHEM_SHAPE_FINGERPRINT>
10258939 38 17549536766449829000
11093857 51 18127679432135877663
11582403 64 17967822642941980012
12156800 1 18268695272667950002
12788726 201 17905588249454542967
13636023 20 17696473983740216236
13726171 33 17981038927881292569
14068700 675 17125648202965063062
15219462 58 17463138186569289840
15324884 4 17685828701497157644
15444296 8 17119690374724614994
15968369 26 17986927748860745573
16067690 210 17759509363322737955
17909252 39 16773791515601624887
17974551 9 15600799675738337855
20587220 17 16082464745354097535
20764821 26 18268126735679605079
21304303 282 17606118630914993048
23559900 14 16844995837378503681
238 59 18124620611723774412
238918 7 16267947009008303271
24941158 1 15937237894776774175
27425 322 17531826751745354021
3493558 16 14645263765565645636
469060 322 17619950521789471590
5081480 168 13049060421916791053
563151 248 18115286944206506720
57527452 28 17769371622216459402
6376802 137 16342304541428656070
6823239 73 16055455164655023661

> <PUBCHEM_SHAPE_MULTIPOLES>
793.91
8.43
5.89
4.16
9.56
7.22
4.52
-9.28
-7.54
2.42
-0.56
-3.6
1.85
0.29

> <PUBCHEM_SHAPE_SELFOVERLAP>
1787.338

> <PUBCHEM_SHAPE_VOLUME>
412.9

> <PUBCHEM_COORDINATE_TYPE>
2
5
10

$$$$
158573
  SciTegic09112316443D

 54 53  0  0  1  0            999 V2000
   -5.2418    1.6416    0.2408 O   0  0
   -8.0682    1.0907   -0.0590 O   0  0
   -9.8322   -0.9370    0.6312 O   0  0
   -1.2032   -0.1025   -0.5413 C   0  0
   -2.4971    0.2122    0.2178 C   0  0
    0.0606    0.1438    0.2864 C   0  0
    1.3562   -0.1021   -0.4945 C   0  0
   -3.7657   -0.0533   -0.6018 C   0  0
    2.6585    0.1514    0.2723 C   0  0
   -5.0426    0.2313    0.2020 C   0  0  2  0  0  0
    3.9491   -0.0322   -0.5328 C   0  0
   -6.2556   -0.4616   -0.4426 C   0  0
    5.2156    0.1869    0.2986 C   0  0
    6.5064    0.0095   -0.5087 C   0  0
   -7.5724   -0.1977    0.3011 C   0  0  2  0  0  0
    7.7737    0.1526    0.3415 C   0  0
   -8.6267   -1.2394   -0.0631 C   0  0
    9.0669   -0.0154   -0.4646 C   0  0
   10.3085    0.1454    0.3632 C   0  0
   11.2101   -0.8242    0.5535 C   0  0
   -1.2203   -1.1497   -0.8674 H   0  0
   -1.1655    0.5116   -1.4496 H   0  0
   -2.4741    1.2623    0.5319 H   0  0
   -2.5264   -0.3918    1.1332 H   0  0
    0.0461   -0.5030    1.1720 H   0  0
    0.0572    1.1786    0.6501 H   0  0
   -3.7521   -1.1040   -0.9159 H   0  0
   -3.7447    0.5647   -1.5078 H   0  0
    1.3516    0.5356   -1.3878 H   0  0
    1.3597   -1.1382   -0.8559 H   0  0
    2.6368    1.1739    0.6700 H   0  0
    2.6842   -0.5176    1.1418 H   0  0
   -4.9388   -0.1272    1.2330 H   0  0
    3.9657   -1.0444   -0.9553 H   0  0
    3.9454    0.6648   -1.3795 H   0  0
   -6.0589   -1.5404   -0.4680 H   0  0
   -6.3573   -0.1111   -1.4781 H   0  0
    5.2176   -0.5179    1.1394 H   0  0
    5.1970    1.1952    0.7300 H   0  0
    6.5280    0.7479   -1.3196 H   0  0
    6.5031   -0.9808   -0.9806 H   0  0
   -7.4247   -0.2011    1.3872 H   0  0
    7.7712    1.1387    0.8234 H   0  0
    7.7505   -0.5913    1.1481 H   0  0
   -8.3034   -2.2466    0.2177 H   0  0
   -8.8472   -1.2127   -1.1354 H   0  0
   -4.5228    2.0301    0.7667 H   0  0
    9.0931    0.7327   -1.2664 H   0  0
    9.0585   -0.9966   -0.9555 H   0  0
   -7.3990    1.7460    0.2016 H   0  0
   10.4775    1.1142    0.8259 H   0  0
  -10.4832   -1.6140    0.3791 H   0  0
   12.0900   -0.6441    1.1613 H   0  0
   11.0887   -1.8071    0.1118 H   0  0
  1 10  1  0
  1 47  1  0
  2 15  1  0
  2 50  1  0
  3 17  1  0
  3 52  1  0
  4  5  1  0
  4  6  1  0
  4 21  1  0
  4 22  1  0
  5  8  1  0
  5 23  1  0
  5 24  1  0
  6  7  1  0
  6 25  1  0
  6 26  1  0
  7  9  1  0
  7 29  1  0
  7 30  1  0
  8 10  1  0
  8 27  1  0
  8 28  1  0
  9 11  1  0
  9 31  1  0
  9 32  1  0
 10 12  1  0
 10 33  1  0
 11 13  1  0
 11 34  1  0
 11 35  1  0
 12 15  1  0
 12 36  1  0
 12 37  1  0
 13 14  1  0
 13 38  1  0
 13 39  1  0
 14 16  1  0
 14 40  1  0
 14 41  1  0
 15 17  1  0
 15 42  1  0
 16 18  1  0
 16 43  1  0
 16 44  1  0
 17 45  1  0
 17 46  1  0
 18 19  1  0
 18 48  1  0
 18 49  1  0
 19 20  2  0
 19 51  1  0
 20 53  1  0
 20 54  1  0
M  END
> <Name>
158573

> <OBJECTID>
9223372204361842702

> <PUBCHEM_COMPOUND_CID>
158573

> <PUBCHEM_CONFORMER_RMSD>
1.4

> <PUBCHEM_CONFORMER_DIVERSEORDER>
1
49
64
12
6
39
15
16
68
37
32
11
57
69
54
24
50
13
47
2
46
34
28
44
29
43
38
52
21
45
5
51
4
25
9
35
23
42
26
58
18
55
14
7
63
53
22
19
17
65
61
66
31
48
33
27
10
20
41
56
60
62
67
8
30
59
3
36
40

> <PUBCHEM_MMFF94_PARTIAL_CHARGES>
15
1 -0.68
10 0.28
15 0.28
17 0.28
18 0.14
19 -0.29
2 -0.68
20 -0.3
3 -0.68
47 0.4
50 0.4
51 0.15
52 0.4
53 0.15
54 0.15

> <PUBCHEM_EFFECTIVE_ROTOR_COUNT>
15

> <PUBCHEM_PHARMACOPHORE_FEATURES>
7
1 1 acceptor
1 1 donor
1 2 acceptor
1 2 donor
1 20 hydrophobe
1 3 acceptor
1 3 donor

> <PUBCHEM_HEAVY_ATOM_COUNT>
20

> <PUBCHEM_ATOM_DEF_STEREO_COUNT>
0

> <PUBCHEM_ATOM_UDEF_STEREO_COUNT>
2

> <PUBCHEM_BOND_DEF_STEREO_COUNT>
0

> <PUBCHEM_BOND_UDEF_STEREO_COUNT>
0

> <PUBCHEM_ISOTOPIC_ATOM_COUNT>
0

> <PUBCHEM_COMPONENT_COUNT>
1

> <PUBCHEM_CACTVS_TAUTO_COUNT>
1

> <PUBCHEM_CONFORMER_ID>
00026B6D00000001

> <PUBCHEM_MMFF94_ENERGY>
14.9664

> <PUBCHEM_FEATURE_SELFOVERLAP>
35.534

> <PUBCHEM_SHAPE_FINGERPRINT>
11315181 36 12973888105322390325
14202775 3 18113623382892765834
14251764 18 17894347774469002307
14251764 46 18113617889480958522
14251920 1 18410573985151470627
15061470 23 18260545619837883828
15510794 2 18412267225228505646
155225 1 12175625074574173595
18335252 98 18060140921092523030
21095086 128 17894347774769760530
21362267 2 17059757993529430496
21362267 20 17894912966491617714
21362267 313 18263358089203644576
22224240 67 17675924308895602082
232437 2 18187364329400791674
23521765 1 18341895195152355684
23528940 14 18338519755588069563
23581129 1 18409448089539575814
33684 2 18408040715246840254
59521270 166 16370717125087755647
67123 10 18410575093880754492
8209 1 18187083958019523644
9663363 56 17489870432750465929

> <PUBCHEM_SHAPE_MULTIPOLES>
393.98
43.42
0.92
0.77
36.51
0.07
-0.03
-7.9
6.15
-1.52
0.06
0.26
-0.04
-0.09

> <PUBCHEM_SHAPE_SELFOVERLAP>
720.042

> <PUBCHEM_SHAPE_VOLUME>
249.7

> <PUBCHEM_COORDINATE_TYPE>
2
5
10

$$$$
169853
  SciTegic09112316442D

101109  0  0  1  0            999 V2000
    9.5412   -0.8983    0.0000 O   0  0
    6.7878   -3.7637    0.0000 O   0  0
   11.2732    1.1017    0.0000 O   0  0
    8.2175    2.6108    0.0000 O   0  0
    5.8158   -1.3029    0.0000 O   0  0
    7.4501    2.0800    0.0000 O   0  0
    5.8752   -0.4229    0.0000 O   0  0
    7.2583    5.1509    0.0000 O   0  0
   11.8077    1.8731    0.0000 O   0  0
    9.8732   -1.7662    0.0000 O   0  0
   10.9093    4.8605    0.0000 O   0  0
   10.1108   -4.9554    0.0000 O   0  0
   12.1393   -3.3983    0.0000 O   0  0
   13.8713   -2.3983    0.0000 O   0  0
    3.5085   -5.2624    0.0000 O   0  0
    2.2053   -3.7452    0.0000 O   0  0
    4.2821    4.5758    0.0000 O   0  0
    3.6054    2.6939    0.0000 O   0  0
    9.5412    1.1017    0.0000 C   0  0  2  0  0  0
   10.4072    0.6017    0.0000 C   0  0  2  0  0  0
    7.4501   -1.8765    0.0000 C   0  0  2  0  0  0
    8.6752    0.6017    0.0000 C   0  0
   10.4072   -0.3983    0.0000 C   0  0  1  0  0  0
    8.6752   -0.3983    0.0000 C   0  0
    7.7812   -0.9329    0.0000 C   0  0
    6.4674   -2.0616    0.0000 C   0  0  2  0  0  0
    9.8832    2.0414    0.0000 C   0  0
    6.1363   -3.0052    0.0000 C   0  0  1  0  0  0
    8.1017   -2.6351    0.0000 C   0  0
    9.2404    2.8075    0.0000 C   0  0
    7.7812    1.1364    0.0000 C   0  0
    6.8752   -0.4191    0.0000 C   0  0
    9.5824    3.7472    0.0000 C   0  0
   11.2732   -0.8983    0.0000 C   0  0
    8.9253    4.5553    0.0000 C   0  0
    7.8981    4.3824    0.0000 C   0  0  2  0  0  0
    7.7706   -3.5786    0.0000 C   0  0
    7.5418    3.4036    0.0000 C   0  0  1  0  0  0
   10.8680    2.2151    0.0000 C   0  0
    6.8752    0.6226    0.0000 C   0  0
    5.1535   -3.1902    0.0000 C   0  0
    9.1222   -2.4266    0.0000 C   0  0
   10.5673    3.9208    0.0000 C   0  0
   11.2100    3.1548    0.0000 C   0  0
   11.2732   -1.8983    0.0000 C   0  0
    8.4370   -4.3792    0.0000 C   0  0
   12.1393   -0.3983    0.0000 C   0  0
    6.5577    3.2261    0.0000 C   0  0
    9.8070   -3.2115    0.0000 C   0  0
    9.4621   -4.1943    0.0000 C   0  0
    4.8224   -4.1338    0.0000 C   0  0
    4.5019   -2.4316    0.0000 C   0  0
   12.1393   -2.3983    0.0000 C   0  0
   13.0053   -0.8983    0.0000 C   0  0
    5.9120    3.9897    0.0000 C   0  0
    6.2194    2.2852    0.0000 C   0  0
   13.0053   -1.8983    0.0000 C   0  0
    3.8397   -4.3188    0.0000 C   0  0
    3.5192   -2.6166    0.0000 C   0  0
    3.1880   -3.5602    0.0000 C   0  0
    4.9279    3.8122    0.0000 C   0  0
    5.2352    2.1077    0.0000 C   0  0
    4.5895    2.8713    0.0000 C   0  0
   10.3399    1.3925    0.0000 H   0  0
   10.9442    0.2917    0.0000 H   0  0
    6.8962   -1.2317    0.0000 H   0  0
   10.4072   -1.0183    0.0000 H   0  0
    5.8581   -2.1763    0.0000 H   0  0
    5.9310   -3.5902    0.0000 H   0  0
    9.4662    4.8584    0.0000 H   0  0
    8.7192    5.1401    0.0000 H   0  0
    7.2873    4.2759    0.0000 H   0  0
    7.1424    3.8777    0.0000 H   0  0
    6.3394    0.9346    0.0000 H   0  0
   11.8102    0.7917    0.0000 H   0  0
   11.8206    3.2624    0.0000 H   0  0
    5.2065   -1.4176    0.0000 H   0  0
   10.7363   -2.2083    0.0000 H   0  0
    8.2250   -4.9618    0.0000 H   0  0
   12.1393    0.2217    0.0000 H   0  0
   10.4159   -3.0944    0.0000 H   0  0
    6.8408    2.1947    0.0000 H   0  0
    5.5631    0.1129    0.0000 H   0  0
    5.2264   -4.6041    0.0000 H   0  0
    4.7072   -1.8466    0.0000 H   0  0
    7.4726    5.7327    0.0000 H   0  0
   12.2827    2.2716    0.0000 H   0  0
   13.5422   -0.5883    0.0000 H   0  0
    6.1218    4.5731    0.0000 H   0  0
    6.6197    1.8118    0.0000 H   0  0
   10.4606   -1.9648    0.0000 H   0  0
   11.5199    4.9682    0.0000 H   0  0
    3.1152   -2.1463    0.0000 H   0  0
    5.0254    1.5243    0.0000 H   0  0
    9.9032   -5.5396    0.0000 H   0  0
   12.6762   -3.7083    0.0000 H   0  0
   14.4083   -2.0883    0.0000 H   0  0
    3.9125   -5.7327    0.0000 H   0  0
    2.0000   -4.3302    0.0000 H   0  0
    3.6720    4.4658    0.0000 H   0  0
    3.3955    2.1104    0.0000 H   0  0
  1 23  1  0
  1 24  1  0
  2 28  1  0
  2 37  1  0
 20  3  1  1
  3 75  1  0
  4 30  1  0
  4 38  1  0
 26  5  1  6
  5 77  1  0
  6 31  1  0
  6 82  1  0
  7 32  1  0
  7 83  1  0
 36  8  1  6
  8 86  1  0
  9 39  1  0
  9 87  1  0
 10 42  1  0
 10 91  1  0
 11 43  1  0
 11 92  1  0
 12 50  1  0
 12 95  1  0
 13 53  1  0
 13 96  1  0
 14 57  1  0
 14 97  1  0
 15 58  1  0
 15 98  1  0
 16 60  1  0
 16 99  1  0
 17 61  1  0
 17100  1  0
 18 63  1  0
 18101  1  0
 19 20  1  0
 19 22  1  0
 19 27  1  0
 19 64  1  1
 20 23  1  0
 20 65  1  0
 21 25  1  0
 21 26  1  0
 21 29  1  0
 21 66  1  6
 22 24  1  0
 22 31  2  0
 23 34  1  1
 23 67  1  0
 24 25  2  0
 25 32  1  0
 26 28  1  0
 26 68  1  0
 27 30  1  0
 27 39  2  0
 28 41  1  6
 28 69  1  0
 29 37  1  0
 29 42  2  0
 30 33  2  0
 31 40  1  0
 32 40  2  0
 33 35  1  0
 33 43  1  0
 34 45  2  0
 34 47  1  0
 35 36  1  0
 35 70  1  0
 35 71  1  0
 36 38  1  0
 36 72  1  0
 37 46  2  0
 38 48  1  6
 38 73  1  0
 39 44  1  0
 40 74  1  0
 41 51  2  0
 41 52  1  0
 42 49  1  0
 43 44  2  0
 44 76  1  0
 45 53  1  0
 45 78  1  0
 46 50  1  0
 46 79  1  0
 47 54  2  0
 47 80  1  0
 48 55  2  0
 48 56  1  0
 49 50  2  0
 49 81  1  0
 51 58  1  0
 51 84  1  0
 52 59  2  0
 52 85  1  0
 53 57  2  0
 54 57  1  0
 54 88  1  0
 55 61  1  0
 55 89  1  0
 56 62  2  0
 56 90  1  0
 58 60  2  0
 59 60  1  0
 59 93  1  0
 61 63  2  0
 62 63  1  0
 62 94  1  0
M  END
> <Name>
169853

> <OBJECTID>
9223372208656809998

> <PUBCHEM_COMPOUND_CID>
169853

> <PUBCHEM_COMPOUND_CANONICALIZED>
1

> <PUBCHEM_CACTVS_COMPLEXITY>
1550

> <PUBCHEM_CACTVS_HBOND_ACCEPTOR>
18

> <PUBCHEM_CACTVS_HBOND_DONOR>
15

> <PUBCHEM_CACTVS_ROTATABLE_BOND>
5

> <PUBCHEM_CACTVS_SUBSKEYS>
AAADcfB8PgAAAAAAAAAAAAAAAAAAAAAAAAA0aNGDAAAAAACRVAAAGgAACAAADRSgmAIwBoAABgCAAiBCAAACCAAgIAAIiAAGiIgNNyKGMRqCeCGlwBULuAfA4PwOoAADCAAIQABAAAYQABCAAAAAAAAAAA==

> <PUBCHEM_IUPAC_OPENEYE_NAME>
(2R,3R,4S)-2-(3,4-dihydroxyphenyl)-4-[(2R,3R)-2-(3,4-dihydroxyphenyl)-3,5,7-trihydroxy-chroman-8-yl]-8-[(2R,3R,4R)-2-(3,4-dihydroxyphenyl)-3,5,7-trihydroxy-chroman-4-yl]chromane-3,5,7-triol

> <PUBCHEM_IUPAC_CAS_NAME>
(2R,3R,4S)-2-(3,4-dihydroxyphenyl)-4-[(2R,3R)-2-(3,4-dihydroxyphenyl)-3,5,7-trihydroxy-3,4-dihydro-2H-1-benzopyran-8-yl]-8-[(2R,3R,4R)-2-(3,4-dihydroxyphenyl)-3,5,7-trihydroxy-3,4-dihydro-2H-1-benzopyran-4-yl]-3,4-dihydro-2H-1-benzopyran-3,5,7-triol

> <PUBCHEM_IUPAC_NAME_MARKUP>
(2<I>R</I>,3<I>R</I>,4<I>S</I>)-2-(3,4-dihydroxyphenyl)-4-[(2<I>R</I>,3<I>R</I>)-2-(3,4-dihydroxyphenyl)-3,5,7-trihydroxy-3,4-dihydro-2<I>H</I>-chromen-8-yl]-8-[(2<I>R</I>,3<I>R</I>,4<I>R</I>)-2-(3,4-dihydroxyphenyl)-3,5,7-trihydroxy-3,4-dihydro-2<I>H</I>-chromen-4-yl]-3,4-dihydro-2<I>H</I>-chromene-3,5,7-triol

> <PUBCHEM_IUPAC_NAME>
(2R,3R,4S)-2-(3,4-dihydroxyphenyl)-4-[(2R,3R)-2-(3,4-dihydroxyphenyl)-3,5,7-trihydroxy-3,4-dihydro-2H-chromen-8-yl]-8-[(2R,3R,4R)-2-(3,4-dihydroxyphenyl)-3,5,7-trihydroxy-3,4-dihydro-2H-chromen-4-yl]-3,4-dihydro-2H-chromene-3,5,7-triol

> <PUBCHEM_IUPAC_SYSTEMATIC_NAME>
(2R,3R,4S)-2-[3,4-bis(oxidanyl)phenyl]-4-[(2R,3R)-2-[3,4-bis(oxidanyl)phenyl]-3,5,7-tris(oxidanyl)-3,4-dihydro-2H-chromen-8-yl]-8-[(2R,3R,4R)-2-[3,4-bis(oxidanyl)phenyl]-3,5,7-tris(oxidanyl)-3,4-dihydro-2H-chromen-4-yl]-3,4-dihydro-2H-chromene-3,5,7-triol

> <PUBCHEM_IUPAC_TRADITIONAL_NAME>
(2R,3R,4S)-2-(3,4-dihydroxyphenyl)-4-[(2R,3R)-2-(3,4-dihydroxyphenyl)-3,5,7-trihydroxy-chroman-8-yl]-8-[(2R,3R,4R)-2-(3,4-dihydroxyphenyl)-3,5,7-trihydroxy-chroman-4-yl]chroman-3,5,7-triol

> <PUBCHEM_IUPAC_INCHI>
InChI=1S/C45H38O18/c46-18-10-27(54)33-32(11-18)61-42(16-2-5-21(48)25(52)8-16)39(59)37(33)35-29(56)14-30(57)36-38(40(60)43(63-45(35)36)17-3-6-22(49)26(53)9-17)34-28(55)13-23(50)19-12-31(58)41(62-44(19)34)15-1-4-20(47)24(51)7-15/h1-11,13-14,31,37-43,46-60H,12H2/t31-,37-,38+,39-,40-,41-,42-,43-/m1/s1

> <PUBCHEM_IUPAC_INCHIKEY>
MOJZMWJRUKIQGL-XILRTYJMSA-N

> <PUBCHEM_XLOGP3_AA>
3.3

> <PUBCHEM_EXACT_MASS>
866.20581436

> <PUBCHEM_MOLECULAR_FORMULA>
C45H38O18

> <PUBCHEM_MOLECULAR_WEIGHT>
866.8

> <PUBCHEM_OPENEYE_CAN_SMILES>
C1C(C(OC2=C1C(=CC(=C2C3C(C(OC4=C(C(=CC(=C34)O)O)C5C(C(OC6=CC(=CC(=C56)O)O)C7=CC(=C(C=C7)O)O)O)C8=CC(=C(C=C8)O)O)O)O)O)C9=CC(=C(C=C9)O)O)O

> <PUBCHEM_OPENEYE_ISO_SMILES>
C1[C@H]([C@H](OC2=C1C(=CC(=C2[C@@H]3[C@H]([C@H](OC4=C(C(=CC(=C34)O)O)[C@@H]5[C@H]([C@H](OC6=CC(=CC(=C56)O)O)C7=CC(=C(C=C7)O)O)O)C8=CC(=C(C=C8)O)O)O)O)O)C9=CC(=C(C=C9)O)O)O

> <PUBCHEM_CACTVS_TPSA>
331

> <PUBCHEM_MONOISOTOPIC_WEIGHT>
866.20581436

> <PUBCHEM_TOTAL_CHARGE>
0

> <PUBCHEM_HEAVY_ATOM_COUNT>
63

> <PUBCHEM_ATOM_DEF_STEREO_COUNT>
8

> <PUBCHEM_ATOM_UDEF_STEREO_COUNT>
0

> <PUBCHEM_BOND_DEF_STEREO_COUNT>
0

> <PUBCHEM_BOND_UDEF_STEREO_COUNT>
0

> <PUBCHEM_ISOTOPIC_ATOM_COUNT>
0

> <PUBCHEM_COMPONENT_COUNT>
1

> <PUBCHEM_CACTVS_TAUTO_COUNT>
938

> <PUBCHEM_COORDINATE_TYPE>
1
5
255

> <PUBCHEM_BONDANNOTATIONS>
19  64  5
21  66  6
22  24  8
22  31  8
23  34  5
24  25  8
25  32  8
27  30  8
27  39  8
28  41  6
29  37  8
29  42  8
20  3  5
30  33  8
31  40  8
32  40  8
33  43  8
34  45  8
34  47  8
37  46  8
38  48  6
39  44  8
41  51  8
41  52  8
42  49  8
43  44  8
45  53  8
46  50  8
47  54  8
48  55  8
48  56  8
49  50  8
26  5  6
51  58  8
52  59  8
53  57  8
54  57  8
55  61  8
56  62  8
58  60  8
59  60  8
61  63  8
62  63  8
36  8  6

$$$$
179651
  SciTegic09112316443D

 64 70  0  0  1  0            999 V2000
    1.9971    1.3926   -1.9112 O   0  0
   -4.2252   -0.7729    1.4010 O   0  0
    4.1995    1.1076   -0.0311 O   0  0
   -4.3279   -0.9793   -1.5255 O   0  0
   -0.0922    3.1479    0.6941 O   0  0
    4.2300    3.3687   -0.2157 O   0  0
   -5.3208   -3.0039   -1.3721 O   0  0
    5.3613   -3.3105    0.4003 O   0  0
    1.3660    1.0610   -0.6441 C   0  0  1  0  0  0
   -0.2051    1.1406   -0.7075 C   0  0  1  0  0  0
   -0.8246   -0.2127   -0.1492 C   0  0  1  0  0  0
   -2.3931   -0.2364   -0.0436 C   0  0  2  0  0  0
    2.0324   -0.1515    0.0179 C   0  0  1  0  0  0
    2.2373    2.2919   -0.8341 C   0  0  1  0  0  0
   -2.7159    0.9430    0.9028 C   0  0  1  0  0  0
   -0.1511   -1.4265   -0.7734 C   0  0
    1.3688   -1.4481   -0.5358 C   0  0
   -3.0181   -1.3461    0.8137 C   0  0  2  0  0  0
   -0.7894    2.2767    0.1746 C   0  0
   -2.3092    2.3022    0.3710 C   0  0
   -4.1161    0.6703    1.4359 C   0  0
    3.5662   -0.1594   -0.3762 C   0  0  2  0  0  0
   -0.6161    1.4711   -2.1654 C   0  0
   -3.0816   -0.2520   -1.4292 C   0  0
    1.9247   -0.0180    1.5594 C   0  0
    3.6336    2.3076   -0.3507 C   0  0
   -3.4266   -2.5806    0.0309 C   0  0
   -5.2566    1.3020    0.6396 C   0  0
   -4.2557    1.0983    2.9028 C   0  0
    4.3758   -1.3133    0.1931 C   0  0
   -4.4425   -2.2262   -1.0145 C   0  0
    5.0486   -1.3373    1.4303 C   0  0
    4.5904   -2.5282   -0.3997 C   0  0
    5.6359   -2.5784    1.5118 C   0  0
   -0.5283   -0.2867    0.9003 H   0  0
    1.7684    3.2642   -0.9176 H   0  0
   -2.0674    0.8058    1.7874 H   0  0
   -0.3463   -1.4674   -1.8504 H   0  0
   -0.5601   -2.3507   -0.3555 H   0  0
    1.6037   -2.2887    0.1300 H   0  0
    1.8245   -1.7064   -1.5015 H   0  0
   -2.3622   -1.6325    1.6450 H   0  0
   -2.5452    3.0796    1.1064 H   0  0
   -2.8047    2.5753   -0.5625 H   0  0
    3.6678   -0.2443   -1.4680 H   0  0
   -0.3660    0.6553   -2.8510 H   0  0
   -1.6693    1.7120   -2.2867 H   0  0
   -0.1046    2.3731   -2.5245 H   0  0
   -3.3366    0.7572   -1.7529 H   0  0
   -2.4333   -0.6840   -2.1970 H   0  0
    2.0878   -0.9810    2.0543 H   0  0
    2.6709    0.6822    1.9522 H   0  0
    0.9714    0.3801    1.9094 H   0  0
   -3.9054   -3.2911    0.7153 H   0  0
   -2.5834   -3.0765   -0.4531 H   0  0
   -5.2358    1.0343   -0.4169 H   0  0
   -6.2258    0.9547    1.0164 H   0  0
   -5.2343    2.3946    0.7076 H   0  0
   -3.5239    0.5848    3.5371 H   0  0
   -4.1240    2.1784    3.0221 H   0  0
   -5.2411    0.8223    3.2961 H   0  0
    5.1061   -0.5574    2.1759 H   0  0
    4.2858   -2.9749   -1.3351 H   0  0
    6.2481   -3.0685    2.2547 H   0  0
  1  9  1  0
  1 14  1  0
  2 18  1  0
  2 21  1  0
  3 22  1  0
  3 26  1  0
  4 24  1  0
  4 31  1  0
  5 19  2  0
  6 26  2  0
  7 31  2  0
  8 33  1  0
  8 34  1  0
  9 10  1  0
  9 13  1  0
  9 14  1  0
 10 11  1  0
 10 19  1  0
 10 23  1  0
 11 12  1  0
 11 16  1  0
 11 35  1  0
 12 15  1  0
 12 18  1  0
 12 24  1  0
 13 17  1  0
 13 22  1  0
 13 25  1  0
 14 26  1  0
 14 36  1  0
 15 20  1  0
 15 21  1  0
 15 37  1  0
 16 17  1  0
 16 38  1  0
 16 39  1  0
 17 40  1  0
 17 41  1  0
 18 27  1  0
 18 42  1  0
 19 20  1  0
 20 43  1  0
 20 44  1  0
 21 28  1  0
 21 29  1  0
 22 30  1  0
 22 45  1  0
 23 46  1  0
 23 47  1  0
 23 48  1  0
 24 49  1  0
 24 50  1  0
 25 51  1  0
 25 52  1  0
 25 53  1  0
 27 31  1  0
 27 54  1  0
 27 55  1  0
 28 56  1  0
 28 57  1  0
 28 58  1  0
 29 59  1  0
 29 60  1  0
 29 61  1  0
 30 32  1  0
 30 33  2  0
 32 34  2  0
 32 62  1  0
 33 63  1  0
 34 64  1  0
M  END
> <Name>
179651

> <OBJECTID>
9223372212951777294

> <PUBCHEM_COMPOUND_CID>
179651

> <PUBCHEM_CONFORMER_RMSD>
0.8

> <PUBCHEM_CONFORMER_DIVERSEORDER>
3
1
2

> <PUBCHEM_MMFF94_PARTIAL_CHARGES>
29
1 -0.3
10 0.16
13 0.09
14 0.05
18 0.28
19 0.45
2 -0.56
20 0.06
21 0.28
22 0.46
24 0.28
26 0.72
27 0.06
3 -0.43
30 -0.18
31 0.66
32 -0.15
33 -0.01
34 -0.01
36 0.1
4 -0.43
5 -0.57
6 -0.57
62 0.15
63 0.15
64 0.15
7 -0.57
8 -0.28
9 -0.04

> <PUBCHEM_EFFECTIVE_ROTOR_COUNT>
3.2

> <PUBCHEM_PHARMACOPHORE_FEATURES>
13
1 1 acceptor
1 2 acceptor
1 5 acceptor
1 6 acceptor
1 7 acceptor
1 8 acceptor
3 21 28 29 hydrophobe
5 2 12 15 18 21 rings
5 8 30 32 33 34 rings
6 10 11 12 15 19 20 rings
6 4 12 18 24 27 31 rings
6 9 10 11 13 16 17 rings
7 1 3 9 13 14 22 26 rings

> <PUBCHEM_HEAVY_ATOM_COUNT>
34

> <PUBCHEM_ATOM_DEF_STEREO_COUNT>
9

> <PUBCHEM_ATOM_UDEF_STEREO_COUNT>
0

> <PUBCHEM_BOND_DEF_STEREO_COUNT>
0

> <PUBCHEM_BOND_UDEF_STEREO_COUNT>
0

> <PUBCHEM_ISOTOPIC_ATOM_COUNT>
0

> <PUBCHEM_COMPONENT_COUNT>
1

> <PUBCHEM_CACTVS_TAUTO_COUNT>
2

> <PUBCHEM_CONFORMER_ID>
0002BDC300000003

> <PUBCHEM_MMFF94_ENERGY>
139.4009

> <PUBCHEM_FEATURE_SELFOVERLAP>
66.441

> <PUBCHEM_SHAPE_FINGERPRINT>
10319926 262 17203055088417388206
10622 236 18198889474428834919
10928967 22 18041000571116265130
11135926 11 18042132114831362612
11578080 2 18189317113259897597
12107183 9 18268156348703385121
12166972 35 18261105327048558479
12422481 6 18198634241247848602
12553582 1 17676765375324923618
12633257 1 18270972249384349217
12788726 201 17702673314319158071
13140716 1 18410301301978083147
13224815 77 18341336673083551693
13540713 5 18341623641318314989
13544653 18 18333448759259060284
13690498 29 17751650857967445766
13782708 43 16733278944936012859
14790565 3 17760098697651434868
14955137 171 18193846938309913392
15131766 46 17534652553012134549
15238133 3 17130722581901905457
15250474 111 18341047518769119422
15361156 5 18337687321198526494
17349148 13 18410292531824001319
17492 89 18409449202332387466
1813 80 17822305530681289238
19246450 95 17764314941953374712
19319366 153 17906732862571071372
19377110 9 18201715219269150416
20028762 73 18342168973438026278
20511986 3 18411693327302960073
20775530 9 17968660406989824154
21033648 29 17557682700159931738
23559900 14 18336252484129895934
3117164 225 18338524023407928952
3633792 109 18262501689741466359
392239 28 18271239439801071872
4098825 35 12035727553088670506
460360 51 18334585680247293327
46194498 28 15069492447452228022
5104073 3 18342744034860534131
56633871 153 18196373615477336794
6058803 2 18269290104522584793
6086070 43 17846493755542421977
70251023 43 18260539017966455242

> <PUBCHEM_SHAPE_MULTIPOLES>
652.75
12.21
3.65
1.78
4.09
0.03
-0.43
7.78
-3.5
2.02
0.39
-1.5
-0.11
-2.9

> <PUBCHEM_SHAPE_SELFOVERLAP>
1451.963

> <PUBCHEM_SHAPE_VOLUME>
343.5

> <PUBCHEM_COORDINATE_TYPE>
2
5
10

$$$$
193681
  SciTegic09112316443D

 56 56  0  0  1  0            999 V2000
    0.7796    2.2200   -2.7091 O   0  0
   -1.8817    1.8800   -2.2953 O   0  0
   -0.8425   -1.8733    0.4779 O   0  0
    2.6178    0.8960   -1.2563 O   0  0
    2.2342   -1.0097    1.6813 O   0  0
    0.3634    1.7352   -1.4341 C   0  0  1  0  0  0
   -0.9954    1.1012   -1.5731 C   0  0
    1.4249    0.7229   -1.0055 C   0  0
    0.3384    2.8959   -0.4382 C   0  0
    0.9877   -0.4726   -0.2285 C   0  0
   -1.3158   -0.0853   -1.0184 C   0  0
    2.6752   -2.3990   -0.2572 C   0  0  1  0  0  0
   -0.3134   -0.8128   -0.2337 C   0  0
    1.9946   -1.2634    0.5015 C   0  0
   -2.6603   -0.7556   -1.1695 C   0  0
    4.1070   -2.6406    0.2450 C   0  0
   -0.1980    2.4541    0.8891 C   0  0
    1.8295   -3.6612   -0.0975 C   0  0
   -3.5512   -0.4600   -0.0072 C   0  0
    0.4058    2.5366    2.0900 C   0  0
    5.0111   -1.4325    0.0363 C   0  0
   -4.4948   -1.2572    0.5300 C   0  0
   -0.1881    2.0735    3.3901 C   0  0
    1.7794    3.1402    2.2133 C   0  0
   -5.3625   -0.9021    1.7041 C   0  0
   -4.7449   -2.6303   -0.0349 C   0  0
    1.3302    3.3541   -0.3763 H   0  0
   -0.3078    3.6990   -0.8181 H   0  0
    2.7230   -2.1338   -1.3208 H   0  0
   -3.1552   -0.3709   -2.0709 H   0  0
   -2.5193   -1.8262   -1.3509 H   0  0
    4.1011   -2.9004    1.3107 H   0  0
    4.5404   -3.4952   -0.2886 H   0  0
   -1.2159    2.0686    0.8930 H   0  0
    0.7049    1.4930   -3.3513 H   0  0
    0.8688   -3.5630   -0.6115 H   0  0
    2.3381   -4.5276   -0.5337 H   0  0
    1.6290   -3.8810    0.9569 H   0  0
   -3.4474    0.5335    0.4294 H   0  0
   -1.4027    2.6579   -2.6284 H   0  0
    4.6807   -0.5692    0.6212 H   0  0
    6.0330   -1.6720    0.3477 H   0  0
    5.0396   -1.1430   -1.0191 H   0  0
   -0.1562   -2.2341    1.0624 H   0  0
    0.4281    1.2840    3.8321 H   0  0
   -0.2547    2.9064    4.0974 H   0  0
   -1.1968    1.6705    3.2511 H   0  0
    2.4172    2.9452    1.3475 H   0  0
    2.3092    2.7086    3.0705 H   0  0
    1.7067    4.2203    2.3746 H   0  0
   -6.4181   -0.9031    1.4144 H   0  0
   -5.1237    0.0924    2.0952 H   0  0
   -5.2200   -1.6233    2.5152 H   0  0
   -4.3658   -2.7733   -1.0493 H   0  0
   -4.2986   -3.3904    0.6145 H   0  0
   -5.8230   -2.8213   -0.0886 H   0  0
  1  6  1  0
  1 35  1  0
  2  7  1  0
  2 40  1  0
  3 13  1  0
  3 44  1  0
  4  8  2  0
  5 14  2  0
  6  7  1  0
  6  8  1  0
  6  9  1  0
  7 11  2  0
  8 10  1  0
  9 17  1  0
  9 27  1  0
  9 28  1  0
 10 13  2  0
 10 14  1  0
 11 13  1  0
 11 15  1  0
 12 14  1  0
 12 16  1  0
 12 18  1  0
 12 29  1  0
 15 19  1  0
 15 30  1  0
 15 31  1  0
 16 21  1  0
 16 32  1  0
 16 33  1  0
 17 20  2  0
 17 34  1  0
 18 36  1  0
 18 37  1  0
 18 38  1  0
 19 22  2  0
 19 39  1  0
 20 23  1  0
 20 24  1  0
 21 41  1  0
 21 42  1  0
 21 43  1  0
 22 25  1  0
 22 26  1  0
 23 45  1  0
 23 46  1  0
 23 47  1  0
 24 48  1  0
 24 49  1  0
 24 50  1  0
 25 51  1  0
 25 52  1  0
 25 53  1  0
 26 54  1  0
 26 55  1  0
 26 56  1  0
M  END
> <Name>
193681

> <OBJECTID>
9223372217246744590

> <PUBCHEM_COMPOUND_CID>
193681

> <PUBCHEM_CONFORMER_RMSD>
1

> <PUBCHEM_CONFORMER_DIVERSEORDER>
7
330
156
258
213
217
60
148
310
137
333
257
276
131
193
274
119
211
225
245
265
177
128
90
29
337
33
104
162
163
189
106
282
254
146
82
243
39
308
297
185
173
300
62
288
182
275
273
43
250
269
326
190
272
47
166
53
218
67
181
325
322
313
264
165
41
98
303
246
294
222
315
219
277
37
280
336
171
331
65
235
157
289
231
224
51
283
223
194
192
184
242
271
295
321
214
305
180
198
117
102
74
179
266
84
323
318
210
314
316
304
195
221
292
233
83
120
151
42
220
236
167
309
97
91
230
201
11
226
55
302
317
301
284
296
263
121
123
78
248
196
105
290
311
329
228
262
191
144
22
281
328
46
216
232
209
129
21
63
203
34
101
69
136
110
126
59
261
147
307
205
229
237
57
255
89
160
109
312
19
279
124
125
92
259
299
99
133
172
207
253
10
150
268
227
215
335
108
96
188
240
241
140
1
118
285
334
13
145
278
138
45
206
200
5
324
291
77
15
64
85
71
23
87
159
112
30
174
134
175
94
113
153
183
306
256
332
38
267
234
122
238
270
26
70
115
161
20
319
202
286
169
35
25
114
158
100
111
247
197
186
44
260
93
52
139
178
287
14
239
208
204
170
27
36
72
116
320
132
58
95
141
298
212
12
24
152
103
4
199
142
155
18
16
143
135
327
252
49
187
251
130
31
88
32
154
81
48
66
28
107
79
56
50
149
73
176
244
9
54
68
249
80
168
61
86
127
6
8
293
164
40
2
17
76
75
3

> <PUBCHEM_MMFF94_PARTIAL_CHARGES>
28
1 -0.68
10 0.03
11 -0.14
12 0.06
13 0.08
14 0.49
15 0.28
17 -0.29
19 -0.29
2 -0.53
20 -0.28
22 -0.28
23 0.14
24 0.14
25 0.14
26 0.14
3 -0.53
34 0.15
35 0.4
39 0.15
4 -0.57
40 0.45
44 0.45
5 -0.57
6 0.48
7 -0.06
8 0.49
9 0.14

> <PUBCHEM_EFFECTIVE_ROTOR_COUNT>
7.2

> <PUBCHEM_PHARMACOPHORE_FEATURES>
11
1 1 acceptor
1 1 donor
1 18 hydrophobe
1 2 donor
1 21 hydrophobe
1 3 donor
1 4 acceptor
1 5 acceptor
3 20 23 24 hydrophobe
3 22 25 26 hydrophobe
6 6 7 8 10 11 13 rings

> <PUBCHEM_HEAVY_ATOM_COUNT>
26

> <PUBCHEM_ATOM_DEF_STEREO_COUNT>
0

> <PUBCHEM_ATOM_UDEF_STEREO_COUNT>
2

> <PUBCHEM_BOND_DEF_STEREO_COUNT>
0

> <PUBCHEM_BOND_UDEF_STEREO_COUNT>
0

> <PUBCHEM_ISOTOPIC_ATOM_COUNT>
0

> <PUBCHEM_COMPONENT_COUNT>
1

> <PUBCHEM_CACTVS_TAUTO_COUNT>
19

> <PUBCHEM_CONFORMER_ID>
0002F49100000007

> <PUBCHEM_MMFF94_ENERGY>
50.7485

> <PUBCHEM_FEATURE_SELFOVERLAP>
55.835

> <PUBCHEM_SHAPE_FINGERPRINT>
10064457 181 17692805304185224153
11578080 2 18268693048444940629
11582403 64 15979755227305944232
12156800 1 17056997024614309528
13009979 54 18125744312655178362
13135754 10 17555754109072110278
13140716 1 18043520629764185821
13533116 47 18267870661319168787
14817 1 14304527135020980936
14955137 171 18130797775381305958
15238133 3 18058469633675318705
15475509 84 18199480882951214321
16945 1 18187644772846919124
17980427 23 15841257234178805425
17980427 26 17771054183917275437
1813 80 18262536796509011079
19078846 21 17988379121594650025
20510252 161 18192986024552439334
20600515 1 18337123271374508567
23352939 185 18261686904164067118
23419403 2 18268406023610555249
23559900 14 18188202213201493319
2748010 2 17971161838328185669
3052486 1 17343258193010765169
3380486 145 18054754413158868270
35225 105 16625732159883408897
469060 322 17896896352275424770
5895379 119 15982612622425935905

> <PUBCHEM_SHAPE_MULTIPOLES>
505.72
7.48
4.29
2.44
6.07
0.68
-0.36
-8.54
-2.47
-2.48
-1.64
0.37
2.79
0.38

> <PUBCHEM_SHAPE_SELFOVERLAP>
1032.689

> <PUBCHEM_SHAPE_VOLUME>
293.7

> <PUBCHEM_COORDINATE_TYPE>
2
5
10

$$$$
196915
  SciTegic09112316443D

 53 53  0  0  1  0            999 V2000
    1.1611    2.8867    1.9232 O   0  0
   -1.5063    2.3545    1.7192 O   0  0
   -0.4258   -2.1586    0.5688 O   0  0
    2.9980    1.0938    1.1444 O   0  0
    3.0018   -2.1999    1.1962 O   0  0
    0.7379    1.9180    0.9662 C   0  0  1  0  0  0
   -0.6126    1.3689    1.3412 C   0  0
    0.7112    2.5921   -0.4047 C   0  0
    1.8090    0.8281    0.9657 C   0  0
   -0.9198    0.0574    1.2798 C   0  0
    1.3891   -0.5769    0.6960 C   0  0
    0.0911   -0.9031    0.8278 C   0  0
   -2.2566   -0.5195    1.6799 C   0  0
    2.4075   -1.5732    0.3197 C   0  0
    2.6845   -1.7591   -1.1683 C   0  0
    0.4400    1.6442   -1.5239 C   0  0
   -3.2298   -0.4788    0.5469 C   0  0
   -0.5596    1.7070   -2.4240 C   0  0
    3.0744   -3.2034   -1.4742 C   0  0
    3.7804   -0.7962   -1.6128 C   0  0
   -3.8878   -1.5137   -0.0103 C   0  0
   -0.7831    0.7192   -3.5338 C   0  0
   -1.5567    2.8338   -2.3812 C   0  0
   -4.8581   -1.4086   -1.1526 C   0  0
   -3.6898   -2.9125    0.5106 C   0  0
    0.0339    3.4520   -0.3850 H   0  0
    1.6964    3.0417   -0.5966 H   0  0
   -2.1257   -1.5047    2.1338 H   0  0
   -2.6832    0.0711    2.5013 H   0  0
    1.7642   -1.5407   -1.7231 H   0  0
    1.1568    0.8407   -1.6603 H   0  0
    1.0830    2.4920    2.8089 H   0  0
   -3.4303    0.5116    0.1386 H   0  0
   -2.3831    1.9631    1.8554 H   0  0
    2.2989   -3.8954   -1.1280 H   0  0
    3.2054   -3.3514   -2.5511 H   0  0
    4.0105   -3.4807   -0.9771 H   0  0
    4.0008   -0.9224   -2.6780 H   0  0
    4.7063   -0.9632   -1.0511 H   0  0
    3.4873    0.2459   -1.4559 H   0  0
    0.2933   -2.7415    0.2743 H   0  0
   -1.7550    0.2285   -3.4184 H   0  0
   -0.7558    1.2236   -4.5049 H   0  0
   -0.0145   -0.0609   -3.5398 H   0  0
   -1.7853    3.1700   -1.3665 H   0  0
   -1.1980    3.6817   -2.9730 H   0  0
   -2.5146    2.5109   -2.8054 H   0  0
   -4.5247   -2.0258   -1.9931 H   0  0
   -4.9479   -0.3776   -1.5105 H   0  0
   -5.8533   -1.7433   -0.8431 H   0  0
   -3.3637   -2.9691    1.5502 H   0  0
   -4.6384   -3.4614    0.4739 H   0  0
   -2.9712   -3.4492   -0.1170 H   0  0
  1  6  1  0
  1 32  1  0
  2  7  1  0
  2 34  1  0
  3 12  1  0
  3 41  1  0
  4  9  2  0
  5 14  2  0
  6  7  1  0
  6  8  1  0
  6  9  1  0
  7 10  2  0
  8 16  1  0
  8 26  1  0
  8 27  1  0
  9 11  1  0
 10 12  1  0
 10 13  1  0
 11 12  2  0
 11 14  1  0
 13 17  1  0
 13 28  1  0
 13 29  1  0
 14 15  1  0
 15 19  1  0
 15 20  1  0
 15 30  1  0
 16 18  2  0
 16 31  1  0
 17 21  2  0
 17 33  1  0
 18 22  1  0
 18 23  1  0
 19 35  1  0
 19 36  1  0
 19 37  1  0
 20 38  1  0
 20 39  1  0
 20 40  1  0
 21 24  1  0
 21 25  1  0
 22 42  1  0
 22 43  1  0
 22 44  1  0
 23 45  1  0
 23 46  1  0
 23 47  1  0
 24 48  1  0
 24 49  1  0
 24 50  1  0
 25 51  1  0
 25 52  1  0
 25 53  1  0
M  END
> <Name>
196915

> <OBJECTID>
9223372221541711886

> <PUBCHEM_COMPOUND_CID>
196915

> <PUBCHEM_CONFORMER_RMSD>
0.8

> <PUBCHEM_CONFORMER_DIVERSEORDER>
41
308
255
276
249
332
335
236
90
97
316
297
32
194
352
280
117
341
55
115
197
221
226
218
230
171
64
344
102
151
327
166
306
292
95
155
219
100
79
247
360
253
212
268
66
266
81
331
326
336
333
29
133
328
77
130
359
152
156
141
250
234
346
67
246
178
19
52
125
142
305
176
179
134
35
33
99
318
323
76
58
350
105
120
154
319
353
357
180
189
252
355
198
89
339
349
161
338
248
112
78
340
310
118
94
37
258
129
222
264
228
245
91
354
157
123
18
109
314
315
243
38
153
181
229
283
347
126
110
293
309
277
270
82
214
173
86
274
21
304
203
288
298
60
63
138
54
111
273
238
190
168
183
124
272
104
113
13
330
210
148
163
232
279
209
313
57
116
88
199
307
324
22
351
322
282
169
265
356
17
362
61
302
119
177
70
85
93
174
69
159
361
241
213
231
224
271
235
25
257
345
220
244
343
14
47
7
285
4
39
108
71
290
295
149
195
98
225
216
162
242
186
9
8
325
205
204
278
3
217
358
237
53
24
150
300
167
269
275
146
348
160
165
262
27
132
136
40
87
233
188
2
317
114
184
65
44
31
137
26
267
223
128
103
107
145
185
329
68
172
337
15
46
260
200
251
28
284
261
287
84
122
192
158
62
147
296
72
206
1
135
20
303
202
342
263
299
16
50
92
311
45
12
36
289
139
175
164
59
143
294
131
321
56
312
127
6
239
144
193
301
11
254
291
191
196
121
227
182
42
5
23
187
320
101
259
10
281
30
256
96
48
211
334
170
74
51
208
106
83
215
201
73
43
140
80
286
49
75
34
240
207

> <PUBCHEM_MMFF94_PARTIAL_CHARGES>
28
1 -0.68
10 -0.14
11 0.03
12 0.08
13 0.28
14 0.49
15 0.06
16 -0.29
17 -0.29
18 -0.28
2 -0.53
21 -0.28
22 0.14
23 0.14
24 0.14
25 0.14
3 -0.53
31 0.15
32 0.4
33 0.15
34 0.45
4 -0.57
41 0.45
5 -0.57
6 0.48
7 -0.06
8 0.14
9 0.49

> <PUBCHEM_EFFECTIVE_ROTOR_COUNT>
6.2

> <PUBCHEM_PHARMACOPHORE_FEATURES>
10
1 1 acceptor
1 1 donor
1 2 donor
1 3 donor
1 4 acceptor
1 5 acceptor
3 15 19 20 hydrophobe
3 18 22 23 hydrophobe
3 21 24 25 hydrophobe
6 6 7 9 10 11 12 rings

> <PUBCHEM_HEAVY_ATOM_COUNT>
25

> <PUBCHEM_ATOM_DEF_STEREO_COUNT>
0

> <PUBCHEM_ATOM_UDEF_STEREO_COUNT>
1

> <PUBCHEM_BOND_DEF_STEREO_COUNT>
0

> <PUBCHEM_BOND_UDEF_STEREO_COUNT>
0

> <PUBCHEM_ISOTOPIC_ATOM_COUNT>
0

> <PUBCHEM_COMPONENT_COUNT>
1

> <PUBCHEM_CACTVS_TAUTO_COUNT>
19

> <PUBCHEM_CONFORMER_ID>
3013300000029

> <PUBCHEM_MMFF94_ENERGY>
49.7593

> <PUBCHEM_FEATURE_SELFOVERLAP>
50.759

> <PUBCHEM_SHAPE_FINGERPRINT>
107951 10 16043118437837807036
11578080 2 18188767237313102964
12293681 25 17838309931688622814
12553582 1 18270415905265482467
12617007 42 17749387122191731479
12969540 37 18271810163345144062
14181834 199 18044380658331551081
14817 1 10077592876961796436
14863182 85 17982743161797069234
15210252 30 16588022411818225887
15238133 3 15503470713991560255
16945 1 18266755738477738720
17357779 13 18334011692185625655
20600515 1 18041002885675635920
20602899 9 17398672298722951476
20691752 17 17967260788373959946
21285901 2 18188475952340444551
22889148 1 17536597304953561311
23419403 2 18050529011569546248
238 59 16448717793293555191
25222932 49 16697228316651647887
26353 1 18041575675425596959
2748010 2 18339925900891436848
3493558 16 12624264671166362955
4175511 335 18051416463692818329
46194498 28 17825113863999727831
5081480 168 17822872952022654823
6669772 16 17053597631172315520

> <PUBCHEM_SHAPE_MULTIPOLES>
485.14
6.16
3.81
2.74
3.91
0.27
1.81
-6.35
1.53
-0.34
0.85
0.03
1.79
1.36

> <PUBCHEM_SHAPE_SELFOVERLAP>
993.599

> <PUBCHEM_SHAPE_VOLUME>
280.8

> <PUBCHEM_COORDINATE_TYPE>
2
5
10

$$$$
234540
  SciTegic09112316443D

 32 33  0  0  1  0            999 V2000
    0.0989    0.5663    1.3315 O   0  5
    2.4464    1.6709    0.8027 O   0  0
   -0.0686    0.3161   -0.0081 N   0  3  2  0  0  0
   -0.8365   -0.9985   -0.2249 C   0  0  1  0  0  0
    1.3088    0.1982   -0.6954 C   0  0  2  0  0  0
   -0.8750    1.4489   -0.6285 C   0  0
   -0.0649   -2.1941    0.3432 C   0  0
   -2.2479   -0.9293    0.3714 C   0  0
    2.0928   -1.0041   -0.1440 C   0  0
    1.3153   -2.3054   -0.2892 C   0  0
   -2.2890    1.5395   -0.0654 C   0  0
   -3.0407    0.2264   -0.2267 C   0  0
    2.1605    1.4650   -0.5666 C   0  0
   -0.9137   -1.1036   -1.3162 H   0  0
    1.0825    0.0322   -1.7566 H   0  0
   -0.8848    1.2741   -1.7099 H   0  0
   -0.3457    2.3795   -0.4084 H   0  0
   -0.6195   -3.1211    0.1559 H   0  0
    0.0398   -2.0995    1.4311 H   0  0
   -2.1966   -0.8098    1.4607 H   0  0
   -2.7823   -1.8670    0.1781 H   0  0
    2.3323   -0.8605    0.9168 H   0  0
    3.0480   -1.1009   -0.6740 H   0  0
    1.8726   -3.1251    0.1779 H   0  0
    1.2132   -2.5544   -1.3526 H   0  0
   -2.8354    2.3419   -0.5735 H   0  0
   -2.2493    1.8052    0.9979 H   0  0
   -4.0206    0.2961    0.2585 H   0  0
   -3.2231    0.0354   -1.2913 H   0  0
    1.6808    2.3572   -0.9753 H   0  0
    3.1113    1.3394   -1.0952 H   0  0
    1.6091    1.8791    1.2504 H   0  0
  1  3  1  0
  2 13  1  0
  2 32  1  0
  3  4  1  0
  3  5  1  0
  3  6  1  0
  4  7  1  0
  4  8  1  0
  4 14  1  0
  5  9  1  0
  5 13  1  0
  5 15  1  0
  6 11  1  0
  6 16  1  0
  6 17  1  0
  7 10  1  0
  7 18  1  0
  7 19  1  0
  8 12  1  0
  8 20  1  0
  8 21  1  0
  9 10  1  0
  9 22  1  0
  9 23  1  0
 10 24  1  0
 10 25  1  0
 11 12  1  0
 11 26  1  0
 11 27  1  0
 12 28  1  0
 12 29  1  0
 13 30  1  0
 13 31  1  0
M  CHG  2   1  -1   3   1
M  END
> <Name>
234540

> <OBJECTID>
9223372225836679182

> <PUBCHEM_COMPOUND_CID>
234540

> <PUBCHEM_CONFORMER_RMSD>
0.6

> <PUBCHEM_CONFORMER_DIVERSEORDER>
1
7
12
9
4
11
8
5
3
6
10
2

> <PUBCHEM_MMFF94_PARTIAL_CHARGES>
8
1 -0.75
13 0.28
2 -0.68
3 -0.02
32 0.4
4 0.26
5 0.26
6 0.26

> <PUBCHEM_EFFECTIVE_ROTOR_COUNT>
2.6

> <PUBCHEM_PHARMACOPHORE_FEATURES>
5
1 1 anion
1 2 acceptor
1 2 donor
6 3 4 5 7 9 10 rings
6 3 4 6 8 11 12 rings

> <PUBCHEM_HEAVY_ATOM_COUNT>
13

> <PUBCHEM_ATOM_DEF_STEREO_COUNT>
0

> <PUBCHEM_ATOM_UDEF_STEREO_COUNT>
3

> <PUBCHEM_BOND_DEF_STEREO_COUNT>
0

> <PUBCHEM_BOND_UDEF_STEREO_COUNT>
0

> <PUBCHEM_ISOTOPIC_ATOM_COUNT>
0

> <PUBCHEM_COMPONENT_COUNT>
1

> <PUBCHEM_CACTVS_TAUTO_COUNT>
1

> <PUBCHEM_CONFORMER_ID>
0003942C00000001

> <PUBCHEM_MMFF94_ENERGY>
20.3891

> <PUBCHEM_FEATURE_SELFOVERLAP>
25.389

> <PUBCHEM_SHAPE_FINGERPRINT>
1 1 18411698759829889318
12524768 44 18261114036999199501
12897270 3 18408328778313071069
13380535 76 18409726300599786318
13897977 150 18410012126478451749
14128692 85 18125158225818298655
14648413 74 18263364685656394613
14817 1 11126713062424225866
15775835 57 18341903995208113749
161256 15 18335704879978578877
16945 1 18265336097135873959
17990270 104 18194965140986950423
193761 8 18409732880305424798
19973954 147 18337114453911780885
20201158 50 18265614286431097591
20871998 184 17905615753960817767
21040471 1 18265057001544548174
21501502 16 18338800018201204085
22344851 341 18408881811002649562
2334 1 18336831982460537487
23402539 116 17908971442042590775
23552423 10 18335423405091714327
23559900 14 18270137747078891990
241688 4 17330278268828561858
2748010 2 18335711567237682823
305870 269 18335411370535231184
5084963 1 18341896234154678543
5255222 1 18045501911131271725
528886 8 18335702792518971341
53812653 166 18339360764936642254
63268167 104 18121508950841231723
66348 1 18336271154152434151
7364860 26 18270398283019317582
81228 2 17404585966347525546

> <PUBCHEM_SHAPE_MULTIPOLES>
250.81
3.7
2.39
0.87
1.26
0.56
0.13
-0.9
-0.12
-0.93
0.03
-0.15
-0.17
0.3

> <PUBCHEM_SHAPE_SELFOVERLAP>
504.046

> <PUBCHEM_SHAPE_VOLUME>
146.8

> <PUBCHEM_COORDINATE_TYPE>
2
5
10

$$$$
250873
  SciTegic09112316443D

 43 46  0  0  1  0            999 V2000
   -4.2001   -1.8150    0.0513 O   0  0
    1.5487   -2.6783    0.9536 O   0  0
   -0.9631    0.7357   -0.7439 N   0  0  2  0  0  0
    1.4187   -0.3783    0.6313 N   0  0
   -0.4171    0.9641    1.7060 C   0  0  2  0  0  0
    1.0330    2.0452    0.0252 C   0  0  1  0  0  0
   -1.5231    0.7871    0.6244 C   0  0  2  0  0  0
    0.3884    2.2300    1.4017 C   0  0
    2.0279    0.8498    0.0770 C   0  0  2  0  0  0
   -0.0988    1.8951   -1.0148 C   0  0
    0.5678   -0.2112    1.8144 C   0  0
   -2.3905   -0.4547    0.8957 C   0  0
    2.7219    0.6239   -1.2680 C   0  0
   -2.0186    0.6409   -1.7634 C   0  0
   -3.4994   -0.5932   -0.1450 C   0  0  1  0  0  0
   -2.8995   -0.5868   -1.5458 C   0  0
    3.6319   -0.5847   -1.1647 C   0  0
    1.8864   -1.6630    0.3382 C   0  0
    2.7856   -1.8065   -0.8731 C   0  0
   -0.9072    1.0877    2.6804 H   0  0
    1.5987    2.9532   -0.2208 H   0  0
   -2.1814    1.6665    0.6961 H   0  0
   -0.2652    3.1108    1.4062 H   0  0
    1.1540    2.3991    2.1687 H   0  0
    2.8118    1.1137    0.8024 H   0  0
   -0.6975    2.8169   -1.0172 H   0  0
    0.3323    1.8142   -2.0184 H   0  0
    1.2498   -0.0394    2.6578 H   0  0
    0.0436   -1.1440    2.0417 H   0  0
   -1.7884   -1.3717    0.8865 H   0  0
   -2.8338   -0.3982    1.8977 H   0  0
    3.3039    1.5103   -1.5445 H   0  0
    1.9975    0.4452   -2.0699 H   0  0
   -1.5650    0.5615   -2.7588 H   0  0
   -2.6429    1.5441   -1.7617 H   0  0
   -4.2180    0.2287   -0.0447 H   0  0
   -3.7018   -0.6127   -2.2931 H   0  0
   -2.3152   -1.5029   -1.7059 H   0  0
    4.3739   -0.4352   -0.3712 H   0  0
    4.1793   -0.7260   -2.1030 H   0  0
    3.4430   -2.6685   -0.7121 H   0  0
    2.1419   -2.0366   -1.7307 H   0  0
   -4.5621   -1.8030    0.9538 H   0  0
  1 15  1  0
  1 43  1  0
  2 18  2  0
  3  7  1  0
  3 10  1  0
  3 14  1  0
  4  9  1  0
  4 11  1  0
  4 18  1  0
  5  7  1  0
  5  8  1  0
  5 11  1  0
  5 20  1  0
  6  8  1  0
  6  9  1  0
  6 10  1  0
  6 21  1  0
  7 12  1  0
  7 22  1  0
  8 23  1  0
  8 24  1  0
  9 13  1  0
  9 25  1  0
 10 26  1  0
 10 27  1  0
 11 28  1  0
 11 29  1  0
 12 15  1  0
 12 30  1  0
 12 31  1  0
 13 17  1  0
 13 32  1  0
 13 33  1  0
 14 16  1  0
 14 34  1  0
 14 35  1  0
 15 16  1  0
 15 36  1  0
 16 37  1  0
 16 38  1  0
 17 19  1  0
 17 39  1  0
 17 40  1  0
 18 19  1  0
 19 41  1  0
 19 42  1  0
M  END
> <Name>
250873

> <OBJECTID>
9223372230131646478

> <PUBCHEM_COMPOUND_CID>
250873

> <PUBCHEM_CONFORMER_RMSD>
0.6

> <PUBCHEM_CONFORMER_DIVERSEORDER>
1
23
2
24
22
12
21
8
4
18
16
26
9
25
17
3
13
5
11
15
14
20
10
19
7
6

> <PUBCHEM_MMFF94_PARTIAL_CHARGES>
13
1 -0.68
10 0.27
11 0.3
14 0.27
15 0.28
18 0.57
19 0.06
2 -0.57
3 -0.81
4 -0.66
43 0.4
7 0.27
9 0.3

> <PUBCHEM_EFFECTIVE_ROTOR_COUNT>
2

> <PUBCHEM_PHARMACOPHORE_FEATURES>
8
1 1 acceptor
1 1 donor
1 2 acceptor
1 3 cation
6 3 5 6 7 8 10 rings
6 3 7 12 14 15 16 rings
6 4 5 6 8 9 11 rings
6 4 9 13 17 18 19 rings

> <PUBCHEM_HEAVY_ATOM_COUNT>
19

> <PUBCHEM_ATOM_DEF_STEREO_COUNT>
0

> <PUBCHEM_ATOM_UDEF_STEREO_COUNT>
5

> <PUBCHEM_BOND_DEF_STEREO_COUNT>
0

> <PUBCHEM_BOND_UDEF_STEREO_COUNT>
0

> <PUBCHEM_ISOTOPIC_ATOM_COUNT>
0

> <PUBCHEM_COMPONENT_COUNT>
1

> <PUBCHEM_CACTVS_TAUTO_COUNT>
1

> <PUBCHEM_CONFORMER_ID>
0003D3F900000001

> <PUBCHEM_MMFF94_ENERGY>
32.4854

> <PUBCHEM_FEATURE_SELFOVERLAP>
42.219

> <PUBCHEM_SHAPE_FINGERPRINT>
10064457 181 17978249462523055331
10863032 1 18270126694857018053
11086676 242 15913332394290101876
11578080 2 17988346079853047616
11961588 58 15721088425507791390
12403259 327 13254801230810712943
12423570 1 16310807222179228952
12491281 212 11170494464486079860
12553582 1 17917709097734501167
12716301 132 15696895643602383465
12778500 126 18126033605453550427
13299463 15 17895203172824433968
13464513 79 18263926725045243759
13571099 52 8935004771790424509
14251745 187 17898013679032074371
14787075 74 17702099373439107016
14817 1 8596607416553193696
15001771 113 18269558243176941840
15276787 5 12607404377438980350
15375462 189 17632017545354685637
15664445 248 17168699864471382853
15848702 105 12469218946135207921
15906896 17 17482838865804943241
16752209 62 17416967214837735841
16945 1 18261681453444639976
17093844 170 17328578935122329491
17349148 13 18042134163757537558
17357779 13 17610919154548833563
17492 54 17824843353683854662
18981168 100 12469213272156485489
200 152 18337119973208578310
20291156 8 18060425694066248199
20344682 6 17894639174925347028
20361792 2 17846489314340022413
20645477 70 18057867225598853695
21731516 1 17988352693959341999
22802520 49 17313672529276301313
23419403 2 15970236798205359988
23557571 272 17982430630307135858
238 59 17822864206894155804
2748010 2 17318473237577294392
3060560 45 18043241551505774535
3323516 105 18261678172342683879
5262128 65 17385447613287311245
5845 1 10993281811344616928
81228 2 17412165578307226120

> <PUBCHEM_SHAPE_MULTIPOLES>
369.31
5.45
2.33
1.77
2.25
0.13
0
3.61
-1.94
-0.8
0.44
0.18
-0.21
-0.09

> <PUBCHEM_SHAPE_SELFOVERLAP>
785.421

> <PUBCHEM_SHAPE_VOLUME>
198.3

> <PUBCHEM_COORDINATE_TYPE>
2
5
10

$$$$
262500
  SciTegic09112316442D

134142  0  0  1  0            999 V2000
    7.7331   -1.9895    0.0000 O   0  0
    6.0010   -1.9895    0.0000 O   0  0
    7.7331   -3.9895    0.0000 O   0  0
    6.0010   -4.9895    0.0000 O   0  0
    4.2690   -3.9895    0.0000 O   0  0
    8.5991   -2.4895    0.0000 O   0  0
    4.2690   -0.9895    0.0000 O   0  0
    4.2690   -4.9895    0.0000 O   0  0
    9.4651   -4.9895    0.0000 O   0  0
    6.0010   -6.9895    0.0000 O   0  0
   11.1972   -3.9895    0.0000 O   0  0
   11.1972   -1.9895    0.0000 O   0  0
    4.2690   -7.9895    0.0000 O   0  0
    2.5369   -6.9895    0.0000 O   0  0
    2.5369   -3.9895    0.0000 O   0  0
    9.1562    6.2546    0.0000 N   0  0
    7.7624    4.2074    0.0000 C   0  0
    7.9678    5.1800    0.0000 C   0  0
    8.6303    3.7107    0.0000 C   0  0
    8.9561    5.2869    0.0000 C   0  0
    8.6342    2.7107    0.0000 C   0  0
    9.3647    4.3806    0.0000 C   0  0
    7.5655    6.0826    0.0000 C   0  0
    7.7701    2.2074    0.0000 C   0  0
    6.8983    3.7041    0.0000 C   0  0
    8.2985    6.7454    0.0000 C   0  0
    6.9021    2.7041    0.0000 C   0  0
    7.7580    1.1658    0.0000 C   0  0
    6.8944    4.7040    0.0000 C   0  0
    9.5461    2.2074    0.0000 C   0  0
    8.2786    7.7745    0.0000 C   0  0
   10.0535    6.7589    0.0000 C   0  0
    6.5871    6.2893    0.0000 C   0  0
    8.6581    0.6416    0.0000 C   0  0
   10.0575    7.7882    0.0000 C   0  0
    6.8081    0.6416    0.0000 C   0  0
    9.1641    8.2995    0.0000 C   0  0
    9.5581    1.1658    0.0000 C   0  0
    6.8939    1.6692    0.0000 C   0  0
    8.6706   -0.4434    0.0000 C   0  0
    6.7956   -0.4434    0.0000 C   0  0
    7.7331   -0.9895    0.0000 C   0  0
   10.9235    8.2882    0.0000 C   0  0
    6.8671   -2.4895    0.0000 C   0  0
    6.8671   -3.4895    0.0000 C   0  0
    6.0010   -3.9895    0.0000 C   0  0
    5.1350   -2.4895    0.0000 C   0  0
    5.1350   -3.4895    0.0000 C   0  0
    4.2690   -1.9895    0.0000 C   0  0
    8.5991   -3.4895    0.0000 C   0  0
    5.1350   -5.4895    0.0000 C   0  0
    9.4651   -3.9895    0.0000 C   0  0
    5.1350   -6.4895    0.0000 C   0  0
   10.3312   -3.4895    0.0000 C   0  0
    9.4651   -1.9895    0.0000 C   0  0
   10.3312   -2.4895    0.0000 C   0  0
    4.2690   -6.9895    0.0000 C   0  0
    3.4030   -5.4895    0.0000 C   0  0
    3.4030   -6.4895    0.0000 C   0  0
    9.4651   -0.9895    0.0000 C   0  0
    2.5369   -4.9895    0.0000 C   0  0
    7.1225    5.0905    0.0000 H   0  0
    9.4086    3.3690    0.0000 H   0  0
    9.8010    5.3801    0.0000 H   0  0
    9.3653    3.1442    0.0000 H   0  0
    9.7321    3.8812    0.0000 H   0  0
    9.9000    4.6935    0.0000 H   0  0
    7.3441    6.9033    0.0000 H   0  0
    8.5045    1.7796    0.0000 H   0  0
    6.6840    4.2858    0.0000 H   0  0
    6.2881    3.5940    0.0000 H   0  0
    7.5183    7.0828    0.0000 H   0  0
    6.2911    2.8094    0.0000 H   0  0
    6.6923    2.1206    0.0000 H   0  0
    7.2023    5.2422    0.0000 H   0  0
    6.3563    5.0120    0.0000 H   0  0
    6.5865    4.1659    0.0000 H   0  0
   10.1581    2.1084    0.0000 H   0  0
    9.7484    2.7935    0.0000 H   0  0
    8.0584    8.3541    0.0000 H   0  0
    7.6700    7.6567    0.0000 H   0  0
   10.2603    6.1744    0.0000 H   0  0
   10.6648    6.8627    0.0000 H   0  0
    6.7152    6.8959    0.0000 H   0  0
    5.9805    6.4174    0.0000 H   0  0
    6.4590    5.6827    0.0000 H   0  0
   10.7928    7.3618    0.0000 H   0  0
    6.6058    1.2276    0.0000 H   0  0
    6.1961    0.5425    0.0000 H   0  0
    9.5595    8.7770    0.0000 H   0  0
    8.7613    8.7708    0.0000 H   0  0
   10.0975    0.8600    0.0000 H   0  0
    7.2060    2.2049    0.0000 H   0  0
    6.3582    1.9812    0.0000 H   0  0
    6.5818    1.1334    0.0000 H   0  0
    8.8864   -1.0246    0.0000 H   0  0
    9.2802   -0.3302    0.0000 H   0  0
    6.1860   -0.3302    0.0000 H   0  0
    6.5798   -1.0246    0.0000 H   0  0
    8.4700   -1.4131    0.0000 H   0  0
   11.2335    7.7513    0.0000 H   0  0
   11.4604    8.5982    0.0000 H   0  0
   10.6135    8.8252    0.0000 H   0  0
    7.6032   -2.9145    0.0000 H   0  0
    6.8671   -4.3395    0.0000 H   0  0
    5.2649   -4.4145    0.0000 H   0  0
    5.1350   -1.6395    0.0000 H   0  0
    4.3989   -3.0645    0.0000 H   0  0
    3.6584   -1.8818    0.0000 H   0  0
    4.0569   -2.5721    0.0000 H   0  0
    8.5991   -4.3395    0.0000 H   0  0
    3.7320   -3.6795    0.0000 H   0  0
    5.1350   -4.6395    0.0000 H   0  0
   10.2013   -4.4145    0.0000 H   0  0
    3.7320   -0.6795    0.0000 H   0  0
    5.1350   -7.3395    0.0000 H   0  0
   11.0673   -3.0645    0.0000 H   0  0
    8.7290   -1.5645    0.0000 H   0  0
   10.3312   -1.6395    0.0000 H   0  0
    3.5329   -7.4145    0.0000 H   0  0
    3.4030   -4.6395    0.0000 H   0  0
    3.4030   -7.3395    0.0000 H   0  0
   10.0021   -5.2995    0.0000 H   0  0
   10.0851   -0.9895    0.0000 H   0  0
    9.4651   -0.3695    0.0000 H   0  0
    8.8451   -0.9895    0.0000 H   0  0
    6.0010   -7.6095    0.0000 H   0  0
   11.7341   -3.6795    0.0000 H   0  0
    1.9264   -4.8818    0.0000 H   0  0
    2.3249   -5.5721    0.0000 H   0  0
   11.7341   -2.2995    0.0000 H   0  0
    3.7320   -8.2995    0.0000 H   0  0
    2.0000   -6.6795    0.0000 H   0  0
    2.0000   -3.6795    0.0000 H   0  0
  1 42  1  0
  1 44  1  0
  2 44  1  0
  2 47  1  0
  3 45  1  0
  3 50  1  0
  4 46  1  0
  4 51  1  0
  5 48  1  0
  5112  1  0
  6 50  1  0
  6 55  1  0
  7 49  1  0
  7115  1  0
  8 51  1  0
  8 58  1  0
  9 52  1  0
  9123  1  0
 10 53  1  0
 10127  1  0
 11 54  1  0
 11128  1  0
 12 56  1  0
 12131  1  0
 13 57  1  0
 13132  1  0
 14 59  1  0
 14133  1  0
 15 61  1  0
 15134  1  0
 16 20  1  0
 16 26  1  0
 16 32  1  0
 17 18  1  0
 17 19  1  0
 17 25  1  0
 17 29  1  0
 18 20  1  0
 18 23  1  0
 18 62  1  0
 19 21  1  0
 19 22  1  0
 19 63  1  0
 20 22  1  0
 20 64  1  0
 21 24  1  0
 21 30  1  0
 21 65  1  0
 22 66  1  0
 22 67  1  0
 23 26  1  0
 23 33  1  0
 23 68  1  0
 24 27  1  0
 24 28  1  0
 24 69  1  0
 25 27  1  0
 25 70  1  0
 25 71  1  0
 26 31  1  0
 26 72  1  0
 27 73  1  0
 27 74  1  0
 28 34  1  0
 28 36  1  0
 28 39  1  0
 29 75  1  0
 29 76  1  0
 29 77  1  0
 30 38  1  0
 30 78  1  0
 30 79  1  0
 31 37  1  0
 31 80  1  0
 31 81  1  0
 32 35  1  0
 32 82  1  0
 32 83  1  0
 33 84  1  0
 33 85  1  0
 33 86  1  0
 34 38  2  0
 34 40  1  0
 35 37  1  0
 35 43  1  0
 35 87  1  0
 36 41  1  0
 36 88  1  0
 36 89  1  0
 37 90  1  0
 37 91  1  0
 38 92  1  0
 39 93  1  0
 39 94  1  0
 39 95  1  0
 40 42  1  0
 40 96  1  0
 40 97  1  0
 41 42  1  0
 41 98  1  0
 41 99  1  0
 42100  1  0
 43101  1  0
 43102  1  0
 43103  1  0
 44 45  1  0
 44104  1  0
 45 46  1  0
 45105  1  0
 46 48  1  0
 46106  1  0
 47 48  1  0
 47 49  1  0
 47107  1  0
 48108  1  0
 49109  1  0
 49110  1  0
 50 52  1  0
 50111  1  0
 51 53  1  0
 51113  1  0
 52 54  1  0
 52114  1  0
 53 57  1  0
 53116  1  0
 54 56  1  0
 54117  1  0
 55 56  1  0
 55 60  1  0
 55118  1  0
 56119  1  0
 57 59  1  0
 57120  1  0
 58 59  1  0
 58 61  1  0
 58121  1  0
 59122  1  0
 60124  1  0
 60125  1  0
 60126  1  0
 61129  1  0
 61130  1  0
M  END
> <Name>
262500

> <OBJECTID>
9223372234426613774

> <PUBCHEM_COMPOUND_CID>
262500

> <PUBCHEM_COMPOUND_CANONICALIZED>
1

> <PUBCHEM_CACTVS_COMPLEXITY>
1590

> <PUBCHEM_CACTVS_HBOND_ACCEPTOR>
16

> <PUBCHEM_CACTVS_HBOND_DONOR>
9

> <PUBCHEM_CACTVS_ROTATABLE_BOND>
8

> <PUBCHEM_CACTVS_SUBSKEYS>
AAADcfB+PAAAAAAAAAAAAAAAAAAAAeIAAAA8aJEiAAAWAHiAAAAAHgAACAAADzzxgAcCCAMABgCAAiBCAAAAAAAgAAAACAAIAAgREAIAgQAmQAAFwACPAAPQ4PwPgAAAAAAAAADAAAQAACAAASAACQAAAA==

> <PUBCHEM_IUPAC_OPENEYE_NAME>
2-[5-hydroxy-6-(hydroxymethyl)-2-[(10,14,16,20-tetramethyl-22-azahexacyclo[12.10.0.02,11.05,10.015,23.017,22]tetracos-4-en-7-yl)oxy]-4-[3,4,5-trihydroxy-6-(hydroxymethyl)tetrahydropyran-2-yl]oxy-tetrahydropyran-3-yl]oxy-6-methyl-tetrahydropyran-3,4,5-triol

> <PUBCHEM_IUPAC_CAS_NAME>
2-[[5-hydroxy-6-(hydroxymethyl)-2-[(10,14,16,20-tetramethyl-22-azahexacyclo[12.10.0.02,11.05,10.015,23.017,22]tetracos-4-en-7-yl)oxy]-4-[[3,4,5-trihydroxy-6-(hydroxymethyl)-2-oxanyl]oxy]-3-oxanyl]oxy]-6-methyloxane-3,4,5-triol

> <PUBCHEM_IUPAC_NAME_MARKUP>
2-[5-hydroxy-6-(hydroxymethyl)-2-[(10,14,16,20-tetramethyl-22-azahexacyclo[12.10.0.0<SUP>2,11</SUP>.0<SUP>5,10</SUP>.0<SUP>15,23</SUP>.0<SUP>17,22</SUP>]tetracos-4-en-7-yl)oxy]-4-[3,4,5-trihydroxy-6-(hydroxymethyl)oxan-2-yl]oxyoxan-3-yl]oxy-6-methyloxane-3,4,5-triol

> <PUBCHEM_IUPAC_NAME>
2-[5-hydroxy-6-(hydroxymethyl)-2-[(10,14,16,20-tetramethyl-22-azahexacyclo[12.10.0.02,11.05,10.015,23.017,22]tetracos-4-en-7-yl)oxy]-4-[3,4,5-trihydroxy-6-(hydroxymethyl)oxan-2-yl]oxyoxan-3-yl]oxy-6-methyloxane-3,4,5-triol

> <PUBCHEM_IUPAC_SYSTEMATIC_NAME>
2-[6-(hydroxymethyl)-4-[6-(hydroxymethyl)-3,4,5-tris(oxidanyl)oxan-2-yl]oxy-5-oxidanyl-2-[(10,14,16,20-tetramethyl-22-azahexacyclo[12.10.0.02,11.05,10.015,23.017,22]tetracos-4-en-7-yl)oxy]oxan-3-yl]oxy-6-methyl-oxane-3,4,5-triol

> <PUBCHEM_IUPAC_TRADITIONAL_NAME>
2-[5-hydroxy-6-methylol-2-[(10,14,16,20-tetramethyl-22-azahexacyclo[12.10.0.02,11.05,10.015,23.017,22]tetracos-4-en-7-yl)oxy]-4-(3,4,5-trihydroxy-6-methylol-tetrahydropyran-2-yl)oxy-tetrahydropyran-3-yl]oxy-6-methyl-tetrahydropyran-3,4,5-triol

> <PUBCHEM_IUPAC_INCHI>
InChI=1S/C45H73NO15/c1-19-6-9-27-20(2)31-28(46(27)16-19)15-26-24-8-7-22-14-23(10-12-44(22,4)25(24)11-13-45(26,31)5)57-43-40(61-41-37(54)35(52)32(49)21(3)56-41)39(34(51)30(18-48)59-43)60-42-38(55)36(53)33(50)29(17-47)58-42/h7,19-21,23-43,47-55H,6,8-18H2,1-5H3

> <PUBCHEM_IUPAC_INCHIKEY>
ZGVSETXHNHBTRK-UHFFFAOYSA-N

> <PUBCHEM_XLOGP3_AA>
1.8

> <PUBCHEM_EXACT_MASS>
867.49802062

> <PUBCHEM_MOLECULAR_FORMULA>
C45H73NO15

> <PUBCHEM_MOLECULAR_WEIGHT>
868.1

> <PUBCHEM_OPENEYE_CAN_SMILES>
CC1CCC2C(C3C(N2C1)CC4C3(CCC5C4CC=C6C5(CCC(C6)OC7C(C(C(C(O7)CO)O)OC8C(C(C(C(O8)CO)O)O)O)OC9C(C(C(C(O9)C)O)O)O)C)C)C

> <PUBCHEM_OPENEYE_ISO_SMILES>
CC1CCC2C(C3C(N2C1)CC4C3(CCC5C4CC=C6C5(CCC(C6)OC7C(C(C(C(O7)CO)O)OC8C(C(C(C(O8)CO)O)O)O)OC9C(C(C(C(O9)C)O)O)O)C)C)C

> <PUBCHEM_CACTVS_TPSA>
241

> <PUBCHEM_MONOISOTOPIC_WEIGHT>
867.49802062

> <PUBCHEM_TOTAL_CHARGE>
0

> <PUBCHEM_HEAVY_ATOM_COUNT>
61

> <PUBCHEM_ATOM_DEF_STEREO_COUNT>
0

> <PUBCHEM_ATOM_UDEF_STEREO_COUNT>
26

> <PUBCHEM_BOND_DEF_STEREO_COUNT>
0

> <PUBCHEM_BOND_UDEF_STEREO_COUNT>
0

> <PUBCHEM_ISOTOPIC_ATOM_COUNT>
0

> <PUBCHEM_COMPONENT_COUNT>
1

> <PUBCHEM_CACTVS_TAUTO_COUNT>
1

> <PUBCHEM_COORDINATE_TYPE>
1
5
255

> <PUBCHEM_BONDANNOTATIONS>
17  29  3
18  62  3
19  63  3
20  64  3
21  65  3
23  68  3
24  69  3
26  72  3
28  39  3
35  87  3
42  100  3
44  104  3
45  105  3
46  106  3
47  107  3
48  108  3
50  111  3
51  113  3
52  114  3
53  116  3
54  117  3
55  118  3
56  119  3
57  120  3
58  121  3
59  122  3

$$$$
351830
  SciTegic09112316443D

 40 40  0  0  1  0            999 V2000
    2.0819    0.5789    1.5648 O   0  0
    1.9588    3.5029   -0.4164 O   0  0
    0.1366    4.3995    0.5767 O   0  0
    0.1262   -2.8421    0.1599 O   0  0
   -4.6968   -2.1989    0.4074 O   0  0
    1.8412   -4.0145   -0.7587 O   0  0
    1.0254    1.0620   -0.4467 N   0  0
    3.9526    0.2591   -0.9518 N   0  0
    0.0869    2.0368    0.0610 C   0  0  2  0  0  0
    2.8391   -0.5426   -0.4412 C   0  0  1  0  0  0
   -1.1978    2.0655   -0.7771 C   0  0
    3.3915   -1.6848    0.4246 C   0  0
    1.9514    0.4098    0.3541 C   0  0
   -2.1338    0.9242   -0.4599 C   0  0
    2.3045   -2.5301    1.0884 C   0  0
    0.7106    3.4241    0.1037 C   0  0
   -2.0188   -0.2639   -1.1634 C   0  0
   -3.0912    1.0867    0.5286 C   0  0
    1.4261   -3.2180    0.0735 C   0  0
   -2.8845   -1.3178   -0.8706 C   0  0
   -3.9567    0.0327    0.8213 C   0  0
   -3.8533   -1.1696    0.1218 C   0  0
   -0.1319    1.7763    1.1047 H   0  0
    2.2756   -0.9504   -1.2878 H   0  0
   -0.9604    2.0619   -1.8500 H   0  0
   -1.7415    3.0061   -0.6146 H   0  0
    4.0353   -1.2827    1.2183 H   0  0
    4.0259   -2.3325   -0.1946 H   0  0
    1.0576    0.9131   -1.4512 H   0  0
    2.7618   -3.3126    1.7051 H   0  0
    1.6849   -1.9344    1.7660 H   0  0
    4.5700   -0.3324   -1.5073 H   0  0
    4.5198    0.6000   -0.1758 H   0  0
   -1.2677   -0.3900   -1.9377 H   0  0
   -3.1778    2.0181    1.0805 H   0  0
   -2.7929   -2.2495   -1.4225 H   0  0
   -4.7089    0.1539    1.5961 H   0  0
    2.3210    4.4131   -0.3644 H   0  0
   -0.4292   -3.2877   -0.5147 H   0  0
   -4.4830   -2.9512   -0.1707 H   0  0
  1 13  2  0
  2 16  1  0
  2 38  1  0
  3 16  2  0
  4 19  1  0
  4 39  1  0
  5 22  1  0
  5 40  1  0
  6 19  2  0
  7  9  1  0
  7 13  1  0
  7 29  1  0
  8 10  1  0
  8 32  1  0
  8 33  1  0
  9 11  1  0
  9 16  1  0
  9 23  1  0
 10 12  1  0
 10 13  1  0
 10 24  1  0
 11 14  1  0
 11 25  1  0
 11 26  1  0
 12 15  1  0
 12 27  1  0
 12 28  1  0
 14 17  2  0
 14 18  1  0
 15 19  1  0
 15 30  1  0
 15 31  1  0
 17 20  1  0
 17 34  1  0
 18 21  2  0
 18 35  1  0
 20 22  2  0
 20 36  1  0
 21 22  1  0
 21 37  1  0
M  END
> <Name>
351830

> <OBJECTID>
9223372238721581070

> <PUBCHEM_COMPOUND_CID>
351830

> <PUBCHEM_CONFORMER_RMSD>
0.8

> <PUBCHEM_CONFORMER_DIVERSEORDER>
1
435
420
401
333
127
15
14
160
213
400
166
229
475
113
147
25
304
66
430
473
308
234
103
321
144
271
93
84
65
491
154
292
410
457
471
385
158
138
105
169
12
6
278
249
100
411
361
412
344
168
177
211
83
459
207
429
101
74
287
233
235
360
406
315
379
33
407
252
89
286
476
393
98
102
482
276
80
43
423
114
465
299
432
262
354
200
285
202
181
376
390
109
259
305
20
184
455
7
260
132
219
316
452
152
246
302
10
212
106
38
417
366
39
95
36
356
487
345
284
136
185
225
87
227
322
178
298
493
336
275
348
188
148
402
151
378
72
195
295
442
445
314
42
3
309
342
231
46
449
111
18
414
426
232
180
58
140
135
424
301
209
240
388
415
44
440
108
24
217
372
311
382
307
352
351
218
481
13
413
450
172
317
280
328
368
451
182
27
258
479
92
245
268
139
32
22
23
173
21
153
201
458
19
179
324
288
267
274
60
175
383
446
398
210
441
433
279
203
323
313
480
137
56
26
419
57
45
469
409
16
62
55
474
164
59
216
118
82
236
247
296
141
408
30
120
358
155
243
117
472
50
373
112
191
341
312
9
394
294
405
128
61
47
404
145
230
110
176
99
391
37
190
220
499
492
205
187
453
5
338
85
389
91
104
124
68
122
464
264
346
434
349
327
331
347
2
49
300
291
48
282
63
329
54
31
460
255
130
448
35
387
17
396
461
399
189
241
490
403
64
297
215
133
498
149
143
269
318
254
196
497
496
485
165
67
52
325
467
115
330
283
4
11
69
221
484
131
162
443
428
81
197
86
263
384
367
266
427
150
456
125
438
359
339
41
76
163
470
369
8
239
466
444
134
156
326
146
281
53
439
478
397
77
350
447
332
386
422
253
97
121
238
425
319
357
71
107
167
486
488
183
416
273
244
257
272
242
431
293
421
171
463
436
477
392
395
250
123
159
495
94
370
365
204
468
194
40
222
277
28
88
224
116
248
192
261
270
34
186
375
377
320
371
374
208
489
303
126
78
119
51
462
193
362
381
343
237
355
199
73
353
418
75
256
96
310
226
142
157
174
223
335
70
494
483
334
337
170
198
79
437
228
290
364
29
306
161
340
289
251
206
380
214
90
265
129
454
363

> <PUBCHEM_MMFF94_PARTIAL_CHARGES>
31
1 -0.57
10 0.33
11 0.14
13 0.57
14 -0.14
15 0.06
16 0.66
17 -0.15
18 -0.15
19 0.66
2 -0.65
20 -0.15
21 -0.15
22 0.08
29 0.37
3 -0.57
32 0.36
33 0.36
34 0.15
35 0.15
36 0.15
37 0.15
38 0.5
39 0.5
4 -0.65
40 0.45
5 -0.53
6 -0.57
7 -0.73
8 -0.99
9 0.36

> <PUBCHEM_EFFECTIVE_ROTOR_COUNT>
9

> <PUBCHEM_PHARMACOPHORE_FEATURES>
12
1 1 acceptor
1 2 acceptor
1 3 acceptor
1 4 acceptor
1 5 donor
1 6 acceptor
1 7 donor
1 8 cation
1 8 donor
3 2 3 16 anion
3 4 6 19 anion
6 14 17 18 20 21 22 rings

> <PUBCHEM_HEAVY_ATOM_COUNT>
22

> <PUBCHEM_ATOM_DEF_STEREO_COUNT>
0

> <PUBCHEM_ATOM_UDEF_STEREO_COUNT>
2

> <PUBCHEM_BOND_DEF_STEREO_COUNT>
0

> <PUBCHEM_BOND_UDEF_STEREO_COUNT>
0

> <PUBCHEM_ISOTOPIC_ATOM_COUNT>
0

> <PUBCHEM_COMPONENT_COUNT>
1

> <PUBCHEM_CACTVS_TAUTO_COUNT>
4

> <PUBCHEM_CONFORMER_ID>
00055E5600000001

> <PUBCHEM_MMFF94_ENERGY>
38.1666

> <PUBCHEM_FEATURE_SELFOVERLAP>
61.016

> <PUBCHEM_SHAPE_FINGERPRINT>
10616163 171 18194402182543626414
1100329 8 18050564342344990944
12506688 2 18338232652694328816
12553582 1 18338794520321266388
13140716 1 17903912610523408419
13533116 47 18268149950056630003
138480 1 18410291410795014027
14178342 30 18341317929730390137
14251705 54 18336542720618805571
14251757 5 17118341896601303430
15422964 175 18338790105126735901
17138139 8 16547185734130387863
19591789 44 18120659281998728532
19930381 70 18265334078775597099
20291156 8 18337671923286550289
20645477 70 18117823611920449589
2255824 54 18338236092995067300
3117164 225 18267044812163881507
314173 41 18411426072498496173
3737641 26 18268166265788477094
5309563 4 18410289212120489703
6287921 2 18199744902711296227
6443956 14 18336263449345069469
7097593 13 18412832369783263921
81228 2 17833806310301748136

> <PUBCHEM_SHAPE_MULTIPOLES>
407.57
6.98
5.1
1.04
3.06
2.06
-0.05
-4.98
-0.58
-1.99
-0.16
-0.08
-0.09
-0.14

> <PUBCHEM_SHAPE_SELFOVERLAP>
835.641

> <PUBCHEM_SHAPE_VOLUME>
232.8

> <PUBCHEM_COORDINATE_TYPE>
2
5
10

$$$$
439503
  SciTegic09112316443D

 38 39  0  0  1  0            999 V2000
    0.6148    0.5897   -0.0815 O   0  0
   -0.6594   -1.3637   -0.1478 O   0  0
    4.1096   -1.5205   -0.5293 O   0  0
    4.1888    1.2052    0.4299 O   0  0
    1.6674   -2.8744    0.4108 O   0  0
    0.4963    3.2701    0.5162 O   0  0
   -1.6409    0.8001   -2.5984 O   0  0
    3.0494   -0.9069    0.2054 C   0  0  1  0  0  0
    3.0382    0.5832   -0.1361 C   0  0  1  0  0  0
    1.7228   -1.5697   -0.1656 C   0  0  2  0  0  0
    1.7778    1.2566    0.4122 C   0  0  1  0  0  0
    0.5333   -0.7644    0.3574 C   0  0  1  0  0  0
    1.6865    2.7179   -0.0159 C   0  0
   -1.8404   -0.7735    0.2104 C   0  0
   -2.7033   -0.2704   -0.7595 C   0  0
   -2.1686   -0.6826    1.5603 C   0  0
   -3.9036    0.3280   -0.3763 C   0  0
   -2.3635   -0.3613   -2.2106 C   0  0
   -3.3690   -0.0843    1.9433 C   0  0
   -4.2364    0.4210    0.9751 C   0  0
    3.2762   -1.0652    1.2670 H   0  0
    3.0996    0.7081   -1.2243 H   0  0
    1.6538   -1.6997   -1.2522 H   0  0
    1.7587    1.2235    1.5101 H   0  0
    0.5221   -0.8001    1.4546 H   0  0
    1.6407    2.8138   -1.1059 H   0  0
    2.5334    3.3024    0.3545 H   0  0
    4.9347   -1.0689   -0.2818 H   0  0
    4.1392    1.1059    1.3960 H   0  0
    1.7290   -2.7805    1.3767 H   0  0
   -0.2482    2.7388    0.1855 H   0  0
   -1.5171   -1.0876    2.3291 H   0  0
   -4.5878    0.7275   -1.1202 H   0  0
   -1.7620   -1.2473   -2.4395 H   0  0
   -3.2675   -0.4261   -2.8258 H   0  0
   -3.6304   -0.0158    2.9953 H   0  0
   -5.1713    0.8864    1.2734 H   0  0
   -0.9021    0.9197   -1.9773 H   0  0
  1 11  1  0
  1 12  1  0
  2 12  1  0
  2 14  1  0
  3  8  1  0
  3 28  1  0
  4  9  1  0
  4 29  1  0
  5 10  1  0
  5 30  1  0
  6 13  1  0
  6 31  1  0
  7 18  1  0
  7 38  1  0
  8  9  1  0
  8 10  1  0
  8 21  1  0
  9 11  1  0
  9 22  1  0
 10 12  1  0
 10 23  1  0
 11 13  1  0
 11 24  1  0
 12 25  1  0
 13 26  1  0
 13 27  1  0
 14 15  1  0
 14 16  2  0
 15 17  2  0
 15 18  1  0
 16 19  1  0
 16 32  1  0
 17 20  1  0
 17 33  1  0
 18 34  1  0
 18 35  1  0
 19 20  2  0
 19 36  1  0
 20 37  1  0
M  END
> <Name>
439503

> <OBJECTID>
9223372243016548366

> <PUBCHEM_COMPOUND_CID>
439503

> <PUBCHEM_CONFORMER_RMSD>
0.8

> <PUBCHEM_CONFORMER_DIVERSEORDER>
1
34
14
45
37
63
43
82
57
67
83
56
72
59
61
32
55
18
60
53
69
79
52
58
78
38
81
84
48
2
24
27
75
6
74
50
15
49
64
28
23
73
65
80
77
11
47
51
22
5
35
30
44
31
41
8
39
71
36
20
9
4
21
66
33
25
54
13
16
42
17
40
70
7
46
19
29
3
26
68
10
76
62
12

> <PUBCHEM_MMFF94_PARTIAL_CHARGES>
29
1 -0.56
10 0.28
11 0.28
12 0.56
13 0.28
14 0.08
15 -0.14
16 -0.15
17 -0.15
18 0.42
19 -0.15
2 -0.36
20 -0.15
28 0.4
29 0.4
3 -0.68
30 0.4
31 0.4
32 0.15
33 0.15
36 0.15
37 0.15
38 0.4
4 -0.68
5 -0.68
6 -0.68
7 -0.68
8 0.28
9 0.28

> <PUBCHEM_EFFECTIVE_ROTOR_COUNT>
5.2

> <PUBCHEM_PHARMACOPHORE_FEATURES>
14
1 1 acceptor
1 2 acceptor
1 3 acceptor
1 3 donor
1 4 acceptor
1 4 donor
1 5 acceptor
1 5 donor
1 6 acceptor
1 6 donor
1 7 acceptor
1 7 donor
6 1 8 9 10 11 12 rings
6 14 15 16 17 19 20 rings

> <PUBCHEM_HEAVY_ATOM_COUNT>
20

> <PUBCHEM_ATOM_DEF_STEREO_COUNT>
5

> <PUBCHEM_ATOM_UDEF_STEREO_COUNT>
0

> <PUBCHEM_BOND_DEF_STEREO_COUNT>
0

> <PUBCHEM_BOND_UDEF_STEREO_COUNT>
0

> <PUBCHEM_ISOTOPIC_ATOM_COUNT>
0

> <PUBCHEM_COMPONENT_COUNT>
1

> <PUBCHEM_CACTVS_TAUTO_COUNT>
1

> <PUBCHEM_CONFORMER_ID>
0006B4CF00000001

> <PUBCHEM_MMFF94_ENERGY>
62.975

> <PUBCHEM_FEATURE_SELFOVERLAP>
71.112

> <PUBCHEM_SHAPE_FINGERPRINT>
10366900 7 17749107790256293875
104564 63 18125447410345740584
11471102 20 18410576184338347554
11640471 11 17632585980282017921
12236239 1 17632297861296900787
12553582 1 18268427945656604814
12596599 1 17989492939057168159
12670545 47 17749390407746890211
13764800 53 16588574332427473295
15653759 3 17240483619551727019
16945 1 18410008844923178914
1813 80 17699583445905887022
18186145 218 18409731772583553534
18219364 16 18261385706439050689
19049666 15 17460303365839616819
19930381 70 17906448080606614441
20645476 183 17775282790148091767
21041028 32 18194403294781777216
21486144 27 18334575776121260771
21639500 275 18339911735814811908
23175994 123 18335994055663001927
23402539 116 18131067160863087976
23526113 38 17896589596857803467
23557571 272 16950572030007824375
23559900 14 16660925448346030546
23598291 2 17918270935417817879
238 59 17903033993273886812
25 1 18335700567910749210
3286 77 18334867155519363899
350125 39 17977674438973225682
3524813 1 17894909603214452239
474 4 18341894150990032304
6049 1 17748825232631001781
633830 44 18201445834709949348
6438718 38 17626943080276112025
6992083 37 17775568615467503293
74978 22 18270683185269219043
77492 1 17632574942147677003
81228 2 16097657504325929419

> <PUBCHEM_SHAPE_MULTIPOLES>
370.51
7.37
2.41
1.62
0.05
1.12
0.79
0.01
-0.97
-2.6
-0.29
2.17
0.06
0.26

> <PUBCHEM_SHAPE_SELFOVERLAP>
773.644

> <PUBCHEM_SHAPE_VOLUME>
207.7

> <PUBCHEM_COORDINATE_TYPE>
2
5
10

$$$$
440936
  SciTegic09112316443D

 35 36  0  0  1  0            999 V2000
    0.7023    0.5715   -0.3545 O   0  0
    4.3168   -1.3783   -0.3177 O   0  0
    4.1704    1.3938    0.4882 O   0  0
   -0.4680   -1.4451   -0.4414 O   0  0
    1.8524   -2.8044    0.4398 O   0  0
    0.4000    3.2697    0.0745 O   0  0
   -5.4549    0.7600    0.3643 O   0  0
    3.1579   -0.7823    0.2673 C   0  0  1  0  0  0
    3.1156    0.6856   -0.1577 C   0  0  1  0  0  0
    1.9095   -1.5301   -0.2009 C   0  0  2  0  0  0
    1.7750    1.3214    0.2181 C   0  0  1  0  0  0
    0.6361   -0.7605    0.1496 C   0  0  1  0  0  0
    1.6637    2.7520   -0.2994 C   0  0
   -1.7058   -0.8981   -0.2414 C   0  0
   -2.1936   -0.7475    1.0530 C   0  0
   -2.4679   -0.4959   -1.3341 C   0  0
   -3.4556   -0.1894    1.2570 C   0  0
   -3.7300    0.0622   -1.1302 C   0  0
   -4.2238    0.2154    0.1654 C   0  0
    3.2778   -0.8738    1.3538 H   0  0
    3.2866    0.7571   -1.2389 H   0  0
    1.9624   -1.7196   -1.2795 H   0  0
    1.6410    1.3440    1.3083 H   0  0
    0.5082   -0.7402    1.2399 H   0  0
    1.7298    2.7893   -1.3918 H   0  0
    2.4391    3.3973    0.1232 H   0  0
    5.0897   -0.8732   -0.0122 H   0  0
    4.0231    1.3422    1.4480 H   0  0
    1.8067   -2.6576    1.4001 H   0  0
   -0.2806    2.6844   -0.2999 H   0  0
   -1.6180   -1.0733    1.9144 H   0  0
   -2.0868   -0.6126   -2.3447 H   0  0
   -3.8366   -0.0761    2.2683 H   0  0
   -4.3183    0.3740   -1.9890 H   0  0
   -5.8445    0.9819   -0.4989 H   0  0
  1 11  1  0
  1 12  1  0
  2  8  1  0
  2 27  1  0
  3  9  1  0
  3 28  1  0
  4 12  1  0
  4 14  1  0
  5 10  1  0
  5 29  1  0
  6 13  1  0
  6 30  1  0
  7 19  1  0
  7 35  1  0
  8  9  1  0
  8 10  1  0
  8 20  1  0
  9 11  1  0
  9 21  1  0
 10 12  1  0
 10 22  1  0
 11 13  1  0
 11 23  1  0
 12 24  1  0
 13 25  1  0
 13 26  1  0
 14 15  2  0
 14 16  1  0
 15 17  1  0
 15 31  1  0
 16 18  2  0
 16 32  1  0
 17 19  2  0
 17 33  1  0
 18 19  1  0
 18 34  1  0
M  END
> <Name>
440936

> <OBJECTID>
9223372247311515662

> <PUBCHEM_COMPOUND_CID>
440936

> <PUBCHEM_CONFORMER_RMSD>
0.6

> <PUBCHEM_CONFORMER_DIVERSEORDER>
1
75
53
13
41
80
3
71
61
15
45
9
25
72
78
44
58
69
54
18
73
40
59
50
19
7
22
60
8
38
77
24
68
43
49
65
30
42
52
76
12
70
51
74
14
34
48
31
11
6
29
10
55
28
79
2
66
67
56
57
21
46
16
63
35
33
47
37
23
64
4
17
32
62
26
5
20
39
27
36

> <PUBCHEM_MMFF94_PARTIAL_CHARGES>
28
1 -0.56
10 0.28
11 0.28
12 0.56
13 0.28
14 0.08
15 -0.15
16 -0.15
17 -0.15
18 -0.15
19 0.08
2 -0.68
27 0.4
28 0.4
29 0.4
3 -0.68
30 0.4
31 0.15
32 0.15
33 0.15
34 0.15
35 0.45
4 -0.36
5 -0.68
6 -0.68
7 -0.53
8 0.28
9 0.28

> <PUBCHEM_EFFECTIVE_ROTOR_COUNT>
4.2

> <PUBCHEM_PHARMACOPHORE_FEATURES>
13
1 1 acceptor
1 2 acceptor
1 2 donor
1 3 acceptor
1 3 donor
1 4 acceptor
1 5 acceptor
1 5 donor
1 6 acceptor
1 6 donor
1 7 donor
6 1 8 9 10 11 12 rings
6 14 15 16 17 18 19 rings

> <PUBCHEM_HEAVY_ATOM_COUNT>
19

> <PUBCHEM_ATOM_DEF_STEREO_COUNT>
5

> <PUBCHEM_ATOM_UDEF_STEREO_COUNT>
0

> <PUBCHEM_BOND_DEF_STEREO_COUNT>
0

> <PUBCHEM_BOND_UDEF_STEREO_COUNT>
0

> <PUBCHEM_ISOTOPIC_ATOM_COUNT>
0

> <PUBCHEM_COMPONENT_COUNT>
1

> <PUBCHEM_CACTVS_TAUTO_COUNT>
2

> <PUBCHEM_CONFORMER_ID>
0006BA6800000001

> <PUBCHEM_MMFF94_ENERGY>
59.3366

> <PUBCHEM_FEATURE_SELFOVERLAP>
66.035

> <PUBCHEM_SHAPE_FINGERPRINT>
10366900 7 17748826328259411147
104564 63 18196938768732838340
10688039 33 17968097473905614133
10980938 120 18409725175313157990
11471102 20 18410009944461076486
11640471 11 17846506971235302457
116883 192 18198064681782883604
12236239 1 17775283855199676063
12507557 5 18411419540053673131
12633257 1 17895182355112650089
13134695 92 18409726240470153412
13140716 1 18192990645789303664
14790565 3 18120099639561346868
14866123 147 16099929061047529939
15081414 286 18412267250766207300
15653759 3 17240199949968047271
1601671 61 18335140951226775460
1813 80 17770515139905162022
18186145 218 18341055202412468198
18219364 16 18189047749915874389
18785283 64 17970358215724995909
19049666 15 17678166110305048903
20645476 183 17917142901360869191
20645477 70 18341611495071875766
20671657 1 18268992149413058909
20681677 76 18261675999416390291
21041028 32 18192707843477599353
21639500 275 18339068410586205517
22289505 5 18263353712120409885
22854114 111 18410576210129250279
23175994 123 18334864865895645687
23184049 59 18413390938247408151
23598291 2 18059562620583374239
25 1 18334574680799118114
3472631 163 15769782338448949977
4409770 3 15248525522277054927
474 4 18339640156516604393
5104073 3 18410570725329757835
602551 16 16081662170026076035
74978 22 18341049739034687191
77492 1 17775564234669764295
7832392 63 18342172327722191734
8272917 22 18270403785036350431
84936 182 17771057486557404032
9971528 1 18273211993715457804
9981440 41 17264105750680535536

> <PUBCHEM_SHAPE_MULTIPOLES>
349.93
8.65
2.53
0.98
4.99
1.36
0.04
0.65
-0.59
-2.67
-0.06
0.93
-0.1
0.01

> <PUBCHEM_SHAPE_SELFOVERLAP>
733.544

> <PUBCHEM_SHAPE_VOLUME>
195.4

> <PUBCHEM_COORDINATE_TYPE>
2
5
10

$$$$
441071
  SciTegic09112316443D

 47 53  0  0  1  0            999 V2000
   -2.5993    2.1341    0.4554 O   0  0
    1.9412    3.3988    0.3800 O   0  0
   -1.4213   -2.6185    0.3746 N   0  0  1  0  0  0
    1.1208    1.2175    0.3841 N   0  0
    0.4693   -1.1274    0.3492 C   0  0  2  0  0  0
   -0.0618    0.3421    0.3867 C   0  0  2  0  0  0
   -0.3556   -2.0939   -0.5239 C   0  0  2  0  0  0
   -0.8885    0.8281   -0.8154 C   0  0  1  0  0  0
   -1.8239   -0.2572   -1.3686 C   0  0  1  0  0  0
   -0.9222   -1.4346   -1.7837 C   0  0
    0.3539   -1.7957    1.7261 C   0  0
    1.9222   -0.9052    0.0127 C   0  0
   -1.0888   -2.2635    1.7617 C   0  0
   -1.4825    2.2078   -0.4406 C   0  0  2  0  0  0
   -2.8663   -0.7424   -0.3800 C   0  0
   -2.7826   -2.2027    0.0014 C   0  0
    2.2671    0.4489    0.1206 C   0  0
   -0.4356    3.1049    0.2790 C   0  0
    1.0085    2.5971    0.3506 C   0  0
   -3.7639    0.0877    0.1734 C   0  0
    2.8839   -1.8532   -0.3098 C   0  0
   -3.7744    1.5537   -0.0979 C   0  0
    3.5678    0.8790   -0.0930 C   0  0
    4.1963   -1.4304   -0.5266 C   0  0
    4.5356   -0.0750   -0.4161 C   0  0
   -0.6115    0.5320    1.3182 H   0  0
    0.2554   -2.9530   -0.8263 H   0  0
   -0.1910    1.0465   -1.6419 H   0  0
   -2.3277    0.1174   -2.2688 H   0  0
   -1.4896   -2.1636   -2.3771 H   0  0
   -0.1060   -1.0927   -2.4325 H   0  0
    0.5896   -1.1235    2.5586 H   0  0
    1.0224   -2.6636    1.8043 H   0  0
   -1.2132   -3.1257    2.4246 H   0  0
   -1.7206   -1.4545    2.1484 H   0  0
   -1.8117    2.7223   -1.3526 H   0  0
   -3.4838   -2.4530    0.8080 H   0  0
   -3.1114   -2.8068   -0.8542 H   0  0
   -0.7450    3.3155    1.3108 H   0  0
   -0.4078    4.0719   -0.2395 H   0  0
   -4.4839   -0.2923    0.8927 H   0  0
    2.6347   -2.9066   -0.3810 H   0  0
   -3.8933    1.7884   -1.1619 H   0  0
   -4.6291    1.9980    0.4233 H   0  0
    3.8553    1.9213   -0.0261 H   0  0
    4.9633   -2.1580   -0.7778 H   0  0
    5.5624    0.2365   -0.5885 H   0  0
  1 14  1  0
  1 22  1  0
  2 19  2  0
  3  7  1  0
  3 13  1  0
  3 16  1  0
  4  6  1  0
  4 17  1  0
  4 19  1  0
  5  6  1  0
  5  7  1  0
  5 11  1  0
  5 12  1  0
  6  8  1  0
  6 26  1  0
  7 10  1  0
  7 27  1  0
  8  9  1  0
  8 14  1  0
  8 28  1  0
  9 10  1  0
  9 15  1  0
  9 29  1  0
 10 30  1  0
 10 31  1  0
 11 13  1  0
 11 32  1  0
 11 33  1  0
 12 17  1  0
 12 21  2  0
 13 34  1  0
 13 35  1  0
 14 18  1  0
 14 36  1  0
 15 16  1  0
 15 20  2  0
 16 37  1  0
 16 38  1  0
 17 23  2  0
 18 19  1  0
 18 39  1  0
 18 40  1  0
 20 22  1  0
 20 41  1  0
 21 24  1  0
 21 42  1  0
 22 43  1  0
 22 44  1  0
 23 25  1  0
 23 45  1  0
 24 25  2  0
 24 46  1  0
 25 47  1  0
M  END
> <Name>
441071

> <OBJECTID>
9223372251606482958

> <PUBCHEM_COMPOUND_CID>
441071

> <PUBCHEM_CONFORMER_RMSD>
0.6

> <PUBCHEM_CONFORMER_DIVERSEORDER>
1

> <PUBCHEM_MMFF94_PARTIAL_CHARGES>
27
1 -0.56
12 -0.14
13 0.27
14 0.28
15 -0.28
16 0.41
17 0.12
18 0.06
19 0.57
2 -0.57
20 -0.29
21 -0.15
22 0.42
23 -0.15
24 -0.15
25 -0.15
3 -0.81
4 -0.48
41 0.15
42 0.15
45 0.15
46 0.15
47 0.15
5 0.14
6 0.3
7 0.27
9 0.14

> <PUBCHEM_EFFECTIVE_ROTOR_COUNT>
1.4

> <PUBCHEM_PHARMACOPHORE_FEATURES>
10
1 1 acceptor
1 2 acceptor
1 3 cation
5 3 5 7 11 13 rings
5 4 5 6 12 17 rings
6 12 17 21 23 24 25 rings
6 3 7 9 10 15 16 rings
6 4 6 8 14 18 19 rings
6 5 6 7 8 9 10 rings
7 1 8 9 14 15 20 22 rings

> <PUBCHEM_HEAVY_ATOM_COUNT>
25

> <PUBCHEM_ATOM_DEF_STEREO_COUNT>
6

> <PUBCHEM_ATOM_UDEF_STEREO_COUNT>
0

> <PUBCHEM_BOND_DEF_STEREO_COUNT>
0

> <PUBCHEM_BOND_UDEF_STEREO_COUNT>
0

> <PUBCHEM_ISOTOPIC_ATOM_COUNT>
0

> <PUBCHEM_COMPONENT_COUNT>
1

> <PUBCHEM_CACTVS_TAUTO_COUNT>
1

> <PUBCHEM_CONFORMER_ID>
0006BAEF00000001

> <PUBCHEM_MMFF94_ENERGY>
105.1841

> <PUBCHEM_FEATURE_SELFOVERLAP>
52.967

> <PUBCHEM_SHAPE_FINGERPRINT>
10675989 125 16676958303780680693
10863032 1 18341332206127750631
10948715 1 18192998114890301507
10967382 1 18339641122794672524
1100329 8 18411985736892178481
11680986 33 18192995052425736185
12011746 2 18337388241329698045
12035758 1 18409736187413925496
12156800 1 16969214245171654348
12553582 1 18411971451830484164
12788726 201 18267871571434718336
13027679 85 18337112370974007077
13140716 1 18121489413314746328
14223421 5 18049723215622395889
14251751 93 18122622752004491300
14787075 74 18260836977317583743
14790565 3 18123760755061518105
15209289 33 18407761434560620081
16945 1 18268696354783144798
17492 54 18336543811608940917
19591789 44 18195247702484489029
19930381 70 17114940548647892031
20691752 17 18042107895051610157
20775438 99 16978377790438387583
20905425 154 17549541808071144543
22802520 49 18265614479672698138
2334 1 17689143934817641236
23402539 116 18341323393340052142
23419403 2 17683507799749178903
23558518 356 18190456258560342297
23559900 14 18412542086245165494
238 59 16682273918461219967
2748010 2 17832698354941678756
335352 9 18339923718768468852
34934 24 18340196397778770348
350125 39 18410299138011164525
4340502 62 17242752883240878553
70251023 43 17983278602691168943
7226269 152 18262785295174598696
81228 2 18411420579678676776
90525 40 18056190276581374133
9709674 26 18341336609086518198
9981440 41 17478307091329358992

> <PUBCHEM_SHAPE_MULTIPOLES>
492.79
6.14
3.57
1.19
3.33
1.77
0.06
-0.11
-0.92
-0.6
0.75
-0.31
-0.68
0.3

> <PUBCHEM_SHAPE_SELFOVERLAP>
1134.734

> <PUBCHEM_SHAPE_VOLUME>
249.4

> <PUBCHEM_COORDINATE_TYPE>
2
5
10

$$$$
441207
  SciTegic09112316442D

118125  0  0  1  0            999 V2000
   18.3182   -1.3888    0.0000 O   0  0
   12.9292   -2.4619    0.0000 O   0  0
   19.5591    3.4894    0.0000 O   0  0
   12.0632   -0.9619    0.0000 O   0  0
   21.3186    3.7719    0.0000 O   0  0
    9.4651   -2.4619    0.0000 O   0  0
    9.4651   -0.4619    0.0000 O   0  0
    7.7331   -0.4619    0.0000 O   0  0
    6.0010   -2.4619    0.0000 O   0  0
    7.7331   -3.4619    0.0000 O   0  0
    4.2690   -2.4619    0.0000 O   0  0
    4.2690    0.5381    0.0000 O   0  0
    2.5369   -0.4619    0.0000 O   0  0
   18.3144   -0.3888    0.0000 C   0  0  1  0  0  0
   17.4503   -0.8921    0.0000 C   0  0  1  0  0  0
   16.5823   -0.3954    0.0000 C   0  0  1  0  0  0
   18.3105    0.6112    0.0000 C   0  0  2  0  0  0
   15.6743   -0.9058    0.0000 C   0  0  2  0  0  0
   15.6703   -1.9474    0.0000 C   0  0  2  0  0  0
   16.5785    0.6046    0.0000 C   0  0
   17.4426    1.1079    0.0000 C   0  0
   19.2556    0.9196    0.0000 C   0  0  2  0  0  0
   17.4704   -1.9335    0.0000 C   0  0
   19.2618   -0.6898    0.0000 C   0  0
   16.5744   -2.4647    0.0000 C   0  0
   19.8423    0.1171    0.0000 C   0  0
   14.7453   -0.3453    0.0000 C   0  0
   14.7370   -2.5007    0.0000 C   0  0
   18.3067    1.6112    0.0000 C   0  0
   15.6782    0.0942    0.0000 C   0  0
   13.7994   -0.8769    0.0000 C   0  0
   13.7953   -1.9619    0.0000 C   0  0  2  0  0  0
   19.5626    1.8713    0.0000 C   0  0
   18.9731    2.6791    0.0000 C   0  0
   20.5130    2.1824    0.0000 C   0  0
   12.0632   -1.9619    0.0000 C   0  0  2  0  0  0
   20.5108    3.1824    0.0000 C   0  0
   11.1972   -2.4619    0.0000 C   0  0
   10.3312   -1.9619    0.0000 C   0  0  1  0  0  0
   11.1972   -0.4619    0.0000 C   0  0  1  0  0  0
   10.3312   -0.9619    0.0000 C   0  0  1  0  0  0
   11.1972    0.5381    0.0000 C   0  0
    8.5991   -0.9619    0.0000 C   0  0  2  0  0  0
    8.5991   -1.9619    0.0000 C   0  0
    7.7331   -2.4619    0.0000 C   0  0  1  0  0  0
    6.8671   -0.9619    0.0000 C   0  0  1  0  0  0
    6.8671   -1.9619    0.0000 C   0  0  1  0  0  0
    6.0010   -0.4619    0.0000 C   0  0
    5.1350   -1.9619    0.0000 C   0  0  2  0  0  0
    5.1350   -0.9619    0.0000 C   0  0
    4.2690   -0.4619    0.0000 C   0  0  1  0  0  0
    3.4030   -1.9619    0.0000 C   0  0  1  0  0  0
    3.4030   -0.9619    0.0000 C   0  0  1  0  0  0
    2.5369   -2.4619    0.0000 C   0  0
   18.1913   -1.3086    0.0000 H   0  0
   17.3168    0.0324    0.0000 H   0  0
   15.6768   -2.7974    0.0000 H   0  0
   16.3642    1.1864    0.0000 H   0  0
   15.9683    0.4945    0.0000 H   0  0
   17.8393    1.5844    0.0000 H   0  0
   17.0422    1.5813    0.0000 H   0  0
   19.8677    1.0182    0.0000 H   0  0
   17.6906   -2.5131    0.0000 H   0  0
   18.0791   -1.8157    0.0000 H   0  0
   19.0129   -1.2577    0.0000 H   0  0
   19.8003   -0.9970    0.0000 H   0  0
   16.1789   -2.9422    0.0000 H   0  0
   16.9771   -2.9361    0.0000 H   0  0
   20.3047   -0.2958    0.0000 H   0  0
   20.3015    0.5336    0.0000 H   0  0
   15.1517    0.1229    0.0000 H   0  0
   14.3535    0.1353    0.0000 H   0  0
   14.3415   -2.9782    0.0000 H   0  0
   15.1398   -2.9721    0.0000 H   0  0
   18.9267    1.6136    0.0000 H   0  0
   18.3043    2.2312    0.0000 H   0  0
   17.6867    1.6088    0.0000 H   0  0
   16.2981    0.0918    0.0000 H   0  0
   15.6805    0.7142    0.0000 H   0  0
   15.0582    0.0966    0.0000 H   0  0
   13.5926   -0.2924    0.0000 H   0  0
   13.1882   -0.9806    0.0000 H   0  0
   13.2589   -1.6508    0.0000 H   0  0
   18.8564   -1.6967    0.0000 H   0  0
   18.5114    3.0930    0.0000 H   0  0
   18.5132    2.2633    0.0000 H   0  0
   21.0153    1.8190    0.0000 H   0  0
   12.0632   -2.5819    0.0000 H   0  0
   10.7987   -2.9368    0.0000 H   0  0
   11.5957   -2.9368    0.0000 H   0  0
   10.3312   -2.5819    0.0000 H   0  0
   11.7341   -0.1519    0.0000 H   0  0
    9.7942   -1.2719    0.0000 H   0  0
   11.8172    0.5381    0.0000 H   0  0
   11.1972    1.1581    0.0000 H   0  0
   10.5772    0.5381    0.0000 H   0  0
    9.4651   -3.0819    0.0000 H   0  0
    8.5991   -0.3419    0.0000 H   0  0
    8.8112   -2.5445    0.0000 H   0  0
    9.2097   -1.8542    0.0000 H   0  0
    8.2700   -2.7719    0.0000 H   0  0
    6.8671   -0.3419    0.0000 H   0  0
    6.3301   -1.6519    0.0000 H   0  0
    6.3110    0.0751    0.0000 H   0  0
    5.4641   -0.1519    0.0000 H   0  0
    5.6910   -0.9988    0.0000 H   0  0
    8.2700   -3.7719    0.0000 H   0  0
    5.1350   -2.5819    0.0000 H   0  0
    5.7456   -1.0695    0.0000 H   0  0
    5.3471   -0.3793    0.0000 H   0  0
    4.8059   -0.1519    0.0000 H   0  0
    3.4030   -2.5819    0.0000 H   0  0
    3.4030   -0.3419    0.0000 H   0  0
    2.2269   -1.9249    0.0000 H   0  0
    2.0000   -2.7719    0.0000 H   0  0
    2.8469   -2.9988    0.0000 H   0  0
    3.7320    0.8481    0.0000 H   0  0
    2.0000   -0.7719    0.0000 H   0  0
 14  1  1  1
  1 84  1  0
 32  2  1  1
 36  2  1  1
  3 34  1  0
  3 37  1  0
  4 36  1  0
  4 40  1  0
  5 37  2  0
 39  6  1  6
  6 97  1  0
 41  7  1  6
 43  7  1  1
  8 43  1  0
  8 46  1  0
 47  9  1  6
 49  9  1  6
 45 10  1  6
 10107  1  0
 11 49  1  0
 11 52  1  0
 51 12  1  1
 12117  1  0
 53 13  1  1
 13118  1  0
 14 15  1  0
 14 17  1  0
 14 24  1  0
 15 16  1  0
 15 23  1  0
 15 55  1  1
 16 18  1  0
 16 20  1  0
 16 56  1  6
 17 21  1  0
 17 22  1  0
 17 29  1  1
 18 19  1  0
 18 27  1  0
 18 30  1  1
 19 25  1  0
 19 28  1  0
 19 57  1  1
 20 21  1  0
 20 58  1  0
 20 59  1  0
 21 60  1  0
 21 61  1  0
 22 26  1  0
 22 33  1  1
 22 62  1  0
 23 25  1  0
 23 63  1  0
 23 64  1  0
 24 26  1  0
 24 65  1  0
 24 66  1  0
 25 67  1  0
 25 68  1  0
 26 69  1  0
 26 70  1  0
 27 31  1  0
 27 71  1  0
 27 72  1  0
 28 32  1  0
 28 73  1  0
 28 74  1  0
 29 75  1  0
 29 76  1  0
 29 77  1  0
 30 78  1  0
 30 79  1  0
 30 80  1  0
 31 32  1  0
 31 81  1  0
 31 82  1  0
 32 83  1  0
 33 34  1  0
 33 35  2  0
 34 85  1  0
 34 86  1  0
 35 37  1  0
 35 87  1  0
 36 38  1  0
 36 88  1  0
 38 39  1  0
 38 89  1  0
 38 90  1  0
 39 41  1  0
 39 91  1  0
 40 41  1  0
 40 42  1  1
 40 92  1  0
 41 93  1  0
 42 94  1  0
 42 95  1  0
 42 96  1  0
 43 44  1  0
 43 98  1  0
 44 45  1  0
 44 99  1  0
 44100  1  0
 45 47  1  0
 45101  1  0
 46 47  1  0
 46 48  1  1
 46102  1  0
 47103  1  0
 48104  1  0
 48105  1  0
 48106  1  0
 49 50  1  0
 49108  1  0
 50 51  1  0
 50109  1  0
 50110  1  0
 51 53  1  0
 51111  1  0
 52 53  1  0
 52 54  1  6
 52112  1  0
 53113  1  0
 54114  1  0
 54115  1  0
 54116  1  0
M  END
> <Name>
441207

> <OBJECTID>
9223372255901450254

> <PUBCHEM_COMPOUND_CID>
441207

> <PUBCHEM_COMPOUND_CANONICALIZED>
1

> <PUBCHEM_CACTVS_COMPLEXITY>
1410

> <PUBCHEM_CACTVS_HBOND_ACCEPTOR>
13

> <PUBCHEM_CACTVS_HBOND_DONOR>
5

> <PUBCHEM_CACTVS_ROTATABLE_BOND>
7

> <PUBCHEM_CACTVS_SUBSKEYS>
AAADcfB8PAAAAAAAAAAAAAAAAAAAAYIAAAA0aNECAAAAAGDAAAAAGgAACAAAD1SwgAMCCAAABgCIAiDSCAAAAAAgAAAACAAAAEgRFAIAIQAiUAAFgAAPIQPA4PwPgAAAAAAAAADAAAYAADAAAYAADAAAAA==

> <PUBCHEM_IUPAC_OPENEYE_NAME>
3-[(3S,5R,8R,9S,10S,13R,14S,17R)-3-[(2R,4S,5S,6R)-5-[(2S,4S,5S,6R)-5-[(2S,4S,5S,6R)-4,5-dihydroxy-6-methyl-tetrahydropyran-2-yl]oxy-4-hydroxy-6-methyl-tetrahydropyran-2-yl]oxy-4-hydroxy-6-methyl-tetrahydropyran-2-yl]oxy-14-hydroxy-10,13-dimethyl-1,2,3,4,5,6,7,8,9,11,12,15,16,17-tetradecahydrocyclopenta[a]phenanthren-17-yl]-2H-furan-5-one

> <PUBCHEM_IUPAC_CAS_NAME>
3-[(3S,5R,8R,9S,10S,13R,14S,17R)-3-[[(2R,4S,5S,6R)-5-[[(2S,4S,5S,6R)-5-[[(2S,4S,5S,6R)-4,5-dihydroxy-6-methyl-2-oxanyl]oxy]-4-hydroxy-6-methyl-2-oxanyl]oxy]-4-hydroxy-6-methyl-2-oxanyl]oxy]-14-hydroxy-10,13-dimethyl-1,2,3,4,5,6,7,8,9,11,12,15,16,17-tetradecahydrocyclopenta[a]phenanthren-17-yl]-2H-furan-5-one

> <PUBCHEM_IUPAC_NAME_MARKUP>
3-[(3<I>S</I>,5<I>R</I>,8<I>R</I>,9<I>S</I>,10<I>S</I>,13<I>R</I>,14<I>S</I>,17<I>R</I>)-3-[(2<I>R</I>,4<I>S</I>,5<I>S</I>,6<I>R</I>)-5-[(2<I>S</I>,4<I>S</I>,5<I>S</I>,6<I>R</I>)-5-[(2<I>S</I>,4<I>S</I>,5<I>S</I>,6<I>R</I>)-4,5-dihydroxy-6-methyloxan-2-yl]oxy-4-hydroxy-6-methyloxan-2-yl]oxy-4-hydroxy-6-methyloxan-2-yl]oxy-14-hydroxy-10,13-dimethyl-1,2,3,4,5,6,7,8,9,11,12,15,16,17-tetradecahydrocyclopenta[a]phenanthren-17-yl]-2<I>H</I>-furan-5-one

> <PUBCHEM_IUPAC_NAME>
3-[(3S,5R,8R,9S,10S,13R,14S,17R)-3-[(2R,4S,5S,6R)-5-[(2S,4S,5S,6R)-5-[(2S,4S,5S,6R)-4,5-dihydroxy-6-methyloxan-2-yl]oxy-4-hydroxy-6-methyloxan-2-yl]oxy-4-hydroxy-6-methyloxan-2-yl]oxy-14-hydroxy-10,13-dimethyl-1,2,3,4,5,6,7,8,9,11,12,15,16,17-tetradecahydrocyclopenta[a]phenanthren-17-yl]-2H-furan-5-one

> <PUBCHEM_IUPAC_SYSTEMATIC_NAME>
3-[(3S,5R,8R,9S,10S,13R,14S,17R)-10,13-dimethyl-3-[(2R,4S,5S,6R)-6-methyl-5-[(2S,4S,5S,6R)-6-methyl-5-[(2S,4S,5S,6R)-6-methyl-4,5-bis(oxidanyl)oxan-2-yl]oxy-4-oxidanyl-oxan-2-yl]oxy-4-oxidanyl-oxan-2-yl]oxy-14-oxidanyl-1,2,3,4,5,6,7,8,9,11,12,15,16,17-tetradecahydrocyclopenta[a]phenanthren-17-yl]-2H-furan-5-one

> <PUBCHEM_IUPAC_TRADITIONAL_NAME>
3-[(3S,5R,8R,9S,10S,13R,14S,17R)-3-[(2R,4S,5S,6R)-5-[(2S,4S,5S,6R)-5-[(2S,4S,5S,6R)-4,5-dihydroxy-6-methyl-tetrahydropyran-2-yl]oxy-4-hydroxy-6-methyl-tetrahydropyran-2-yl]oxy-4-hydroxy-6-methyl-tetrahydropyran-2-yl]oxy-14-hydroxy-10,13-dimethyl-1,2,3,4,5,6,7,8,9,11,12,15,16,17-tetradecahydrocyclopenta[a]phenanthren-17-yl]-2H-furan-5-one

> <PUBCHEM_IUPAC_INCHI>
InChI=1S/C41H64O13/c1-20-36(46)29(42)16-34(49-20)53-38-22(3)51-35(18-31(38)44)54-37-21(2)50-33(17-30(37)43)52-25-8-11-39(4)24(15-25)6-7-28-27(39)9-12-40(5)26(10-13-41(28,40)47)23-14-32(45)48-19-23/h14,20-22,24-31,33-38,42-44,46-47H,6-13,15-19H2,1-5H3/t20-,21-,22-,24-,25+,26-,27+,28-,29+,30+,31+,33+,34+,35+,36-,37-,38-,39+,40-,41+/m1/s1

> <PUBCHEM_IUPAC_INCHIKEY>
WDJUZGPOPHTGOT-XUDUSOBPSA-N

> <PUBCHEM_XLOGP3>
2.3

> <PUBCHEM_EXACT_MASS>
764.43469209

> <PUBCHEM_MOLECULAR_FORMULA>
C41H64O13

> <PUBCHEM_MOLECULAR_WEIGHT>
764.9

> <PUBCHEM_OPENEYE_CAN_SMILES>
CC1C(C(CC(O1)OC2C(OC(CC2O)OC3C(OC(CC3O)OC4CCC5(C(C4)CCC6C5CCC7(C6(CCC7C8=CC(=O)OC8)O)C)C)C)C)O)O

> <PUBCHEM_OPENEYE_ISO_SMILES>
C[C@@H]1[C@H]([C@H](C[C@@H](O1)O[C@@H]2[C@H](O[C@H](C[C@@H]2O)O[C@@H]3[C@H](O[C@H](C[C@@H]3O)O[C@H]4CC[C@]5([C@@H](C4)CC[C@@H]6[C@@H]5CC[C@]7([C@@]6(CC[C@@H]7C8=CC(=O)OC8)O)C)C)C)C)O)O

> <PUBCHEM_CACTVS_TPSA>
183

> <PUBCHEM_MONOISOTOPIC_WEIGHT>
764.43469209

> <PUBCHEM_TOTAL_CHARGE>
0

> <PUBCHEM_HEAVY_ATOM_COUNT>
54

> <PUBCHEM_ATOM_DEF_STEREO_COUNT>
20

> <PUBCHEM_ATOM_UDEF_STEREO_COUNT>
0

> <PUBCHEM_BOND_DEF_STEREO_COUNT>
0

> <PUBCHEM_BOND_UDEF_STEREO_COUNT>
0

> <PUBCHEM_ISOTOPIC_ATOM_COUNT>
0

> <PUBCHEM_COMPONENT_COUNT>
1

> <PUBCHEM_CACTVS_TAUTO_COUNT>
-1

> <PUBCHEM_COORDINATE_TYPE>
1
5
255

> <PUBCHEM_BONDANNOTATIONS>
14  1  5
45  10  6
51  12  5
53  13  5
15  55  5
16  56  6
17  29  5
18  30  5
19  57  5
32  2  5
36  2  5
22  33  5
40  42  5
46  48  5
52  54  6
39  6  6
41  7  6
43  7  5
47  9  6
49  9  6

$$$$
441891
  SciTegic09112316442D

157165  0  0  1  0            999 V2000
   10.8882    3.0909    0.0000 O   0  0
    9.3592    4.3229    0.0000 O   0  0
    9.4651   -5.1532    0.0000 O   0  0
    7.7331   -5.1532    0.0000 O   0  0
   13.5227    6.1903    0.0000 O   0  0
    9.4651   -7.1532    0.0000 O   0  0
    7.7331   -8.1532    0.0000 O   0  0
    6.0010   -7.1532    0.0000 O   0  0
   15.0253    5.3287    0.0000 O   0  0
   10.3312   -5.6532    0.0000 O   0  0
    6.0010   -4.1532    0.0000 O   0  0
   14.5176    7.9253    0.0000 O   0  0
    5.1350   -5.6532    0.0000 O   0  0
   11.1972   -8.1532    0.0000 O   0  0
   16.5176    7.9313    0.0000 O   0  0
   17.5227    6.2022    0.0000 O   0  0
   12.9292   -7.1532    0.0000 O   0  0
    4.2690   -8.1532    0.0000 O   0  0
   12.9292   -5.1532    0.0000 O   0  0
   17.5279    4.4702    0.0000 O   0  0
    2.5369   -7.1532    0.0000 O   0  0
    2.5369   -5.1532    0.0000 O   0  0
    9.4944    1.0437    0.0000 C   0  0  1  0  0  0
   10.3623    0.5471    0.0000 C   0  0  2  0  0  0
    9.6999    2.0163    0.0000 C   0  0  2  0  0  0
   10.3662   -0.4529    0.0000 C   0  0  1  0  0  0
   10.6882    2.1232    0.0000 C   0  0  2  0  0  0
    9.5021   -0.9563    0.0000 C   0  0  2  0  0  0
   11.0968    1.2170    0.0000 C   0  0
    8.6303    0.5404    0.0000 C   0  0
    9.2976    2.9189    0.0000 C   0  0  1  0  0  0
    8.6342   -0.4596    0.0000 C   0  0
    9.4901   -1.9978    0.0000 C   0  0  2  0  0  0
   10.0305    3.5817    0.0000 C   0  0  1  0  0  0
    8.6264    1.5404    0.0000 C   0  0
   11.2781   -0.9563    0.0000 C   0  0
   10.3901   -2.5221    0.0000 C   0  0
    8.5402   -2.5221    0.0000 C   0  0
   11.2902   -1.9978    0.0000 C   0  0
    8.3192    3.1256    0.0000 C   0  0
    8.6260   -1.4945    0.0000 C   0  0
   10.5279    4.4492    0.0000 C   0  0
   10.4027   -3.6070    0.0000 C   0  0
    8.5276   -3.6070    0.0000 C   0  0
    9.4651   -4.1532    0.0000 C   0  0  2  0  0  0
   11.5279    4.4522    0.0000 C   0  0
   12.0253    5.3198    0.0000 C   0  0  2  0  0  0
    8.5991   -5.6532    0.0000 C   0  0  2  0  0  0
   13.0253    5.3227    0.0000 C   0  0
   11.5228    6.1843    0.0000 C   0  0
    8.5991   -6.6532    0.0000 C   0  0  1  0  0  0
    7.7331   -7.1532    0.0000 C   0  0  2  0  0  0
    6.8671   -5.6532    0.0000 C   0  0  1  0  0  0
    6.8671   -6.6532    0.0000 C   0  0  1  0  0  0
   14.5227    6.1932    0.0000 C   0  0  2  0  0  0
    6.0010   -5.1532    0.0000 C   0  0
   10.3312   -6.6532    0.0000 C   0  0  2  0  0  0
   15.0202    7.0608    0.0000 C   0  0  1  0  0  0
   11.1972   -7.1532    0.0000 C   0  0  1  0  0  0
    5.1350   -6.6532    0.0000 C   0  0  2  0  0  0
   16.0201    7.0638    0.0000 C   0  0  2  0  0  0
   16.0253    5.3317    0.0000 C   0  0  1  0  0  0
   16.5227    6.1992    0.0000 C   0  0  1  0  0  0
   12.0632   -6.6532    0.0000 C   0  0  1  0  0  0
   11.1972   -5.1532    0.0000 C   0  0  2  0  0  0
    4.2690   -7.1532    0.0000 C   0  0  1  0  0  0
   12.0632   -5.6532    0.0000 C   0  0  2  0  0  0
   16.5279    4.4672    0.0000 C   0  0
    3.4030   -6.6532    0.0000 C   0  0  1  0  0  0
    4.2690   -5.1532    0.0000 C   0  0  2  0  0  0
    3.4030   -5.6532    0.0000 C   0  0  2  0  0  0
   11.1972   -4.1532    0.0000 C   0  0
    4.2690   -4.1532    0.0000 C   0  0
   11.1406    0.2053    0.0000 H   0  0
    8.8546    1.9268    0.0000 H   0  0
   11.0974   -0.0194    0.0000 H   0  0
   11.5330    2.2164    0.0000 H   0  0
   10.2366   -1.3841    0.0000 H   0  0
   11.4642    0.7175    0.0000 H   0  0
   11.6321    1.5298    0.0000 H   0  0
    8.4160    1.1222    0.0000 H   0  0
    8.0201    0.4304    0.0000 H   0  0
    8.9078    2.4368    0.0000 H   0  0
    8.0232   -0.3543    0.0000 H   0  0
    8.4244   -1.0430    0.0000 H   0  0
    8.9344    2.0785    0.0000 H   0  0
    8.0883    1.8483    0.0000 H   0  0
    8.3185    1.0022    0.0000 H   0  0
   11.8902   -1.0553    0.0000 H   0  0
   11.4804   -0.3702    0.0000 H   0  0
    8.3379   -1.9360    0.0000 H   0  0
    7.9281   -2.6211    0.0000 H   0  0
   11.8295   -2.3037    0.0000 H   0  0
    8.4473    3.7322    0.0000 H   0  0
    7.7125    3.2538    0.0000 H   0  0
    8.1910    2.5190    0.0000 H   0  0
    8.9380   -0.9588    0.0000 H   0  0
    8.0902   -1.1824    0.0000 H   0  0
    8.3139   -2.0302    0.0000 H   0  0
   10.6338    5.0602    0.0000 H   0  0
    9.9447    4.6596    0.0000 H   0  0
   10.6185   -4.1883    0.0000 H   0  0
   11.0123   -3.4939    0.0000 H   0  0
    7.9180   -3.4939    0.0000 H   0  0
    8.3118   -4.1883    0.0000 H   0  0
   10.0027   -4.4621    0.0000 H   0  0
    9.5490    4.9131    0.0000 H   0  0
   11.4221    3.8413    0.0000 H   0  0
   12.1112    4.2419    0.0000 H   0  0
   11.4053    5.3179    0.0000 H   0  0
    8.5991   -5.0332    0.0000 H   0  0
   12.9195    4.7118    0.0000 H   0  0
   13.6086    5.1124    0.0000 H   0  0
   12.0588    6.4959    0.0000 H   0  0
   11.2112    6.7203    0.0000 H   0  0
   10.9868    5.8727    0.0000 H   0  0
    8.5991   -7.2732    0.0000 H   0  0
    7.1962   -7.4632    0.0000 H   0  0
    6.8671   -5.0332    0.0000 H   0  0
    6.3301   -6.3431    0.0000 H   0  0
   14.2144    5.6554    0.0000 H   0  0
    5.3905   -5.0455    0.0000 H   0  0
    5.7890   -5.7358    0.0000 H   0  0
    9.7942   -6.3431    0.0000 H   0  0
    7.1962   -8.4632    0.0000 H   0  0
   14.4002    7.0589    0.0000 H   0  0
   11.7341   -7.4632    0.0000 H   0  0
    5.1350   -7.2732    0.0000 H   0  0
   16.6401    7.0656    0.0000 H   0  0
   15.7169    4.7938    0.0000 H   0  0
   16.8343    5.6632    0.0000 H   0  0
    5.4641   -3.8432    0.0000 H   0  0
   12.6002   -6.3431    0.0000 H   0  0
   10.6603   -4.8431    0.0000 H   0  0
    3.7320   -7.4632    0.0000 H   0  0
   12.0632   -5.0332    0.0000 H   0  0
   14.8260    8.4632    0.0000 H   0  0
   15.9459    4.2534    0.0000 H   0  0
   16.6374    3.8569    0.0000 H   0  0
    2.8660   -6.3431    0.0000 H   0  0
   11.7341   -8.4632    0.0000 H   0  0
    4.8059   -4.8431    0.0000 H   0  0
   17.1376    7.9331    0.0000 H   0  0
    3.4030   -5.0332    0.0000 H   0  0
   11.8172   -4.1532    0.0000 H   0  0
   11.1972   -3.5332    0.0000 H   0  0
   10.5772   -4.1532    0.0000 H   0  0
   17.8311    6.7401    0.0000 H   0  0
   13.4662   -6.8432    0.0000 H   0  0
    3.7320   -8.4632    0.0000 H   0  0
   13.4662   -5.4632    0.0000 H   0  0
    4.8890   -4.1532    0.0000 H   0  0
    4.2690   -3.5332    0.0000 H   0  0
    3.6490   -4.1532    0.0000 H   0  0
   17.8395    3.9342    0.0000 H   0  0
    2.0000   -6.8432    0.0000 H   0  0
    2.5369   -4.5332    0.0000 H   0  0
  1 27  1  0
  1 34  1  0
 34  2  1  6
  2107  1  0
 45  3  1  1
 48  3  1  1
  4 48  1  0
  4 53  1  0
  5 49  1  0
 55  5  1  1
 51  6  1  6
 57  6  1  6
 52  7  1  1
  7125  1  0
 54  8  1  6
 60  8  1  1
  9 55  1  0
  9 62  1  0
 10 57  1  0
 10 65  1  0
 11 56  1  0
 11132  1  0
 58 12  1  6
 12137  1  0
 13 60  1  0
 13 70  1  0
 59 14  1  1
 14141  1  0
 61 15  1  1
 15143  1  0
 63 16  1  6
 16148  1  0
 64 17  1  1
 17149  1  0
 66 18  1  6
 18150  1  0
 67 19  1  6
 19151  1  0
 20 68  1  0
 20155  1  0
 69 21  1  6
 21156  1  0
 71 22  1  1
 22157  1  0
 23 24  1  0
 23 25  1  0
 23 30  1  0
 23 35  1  1
 24 26  1  0
 24 29  1  0
 24 74  1  6
 25 27  1  0
 25 31  1  0
 25 75  1  6
 26 28  1  0
 26 36  1  0
 26 76  1  1
 27 29  1  0
 27 77  1  6
 28 32  1  0
 28 33  1  0
 28 78  1  6
 29 79  1  0
 29 80  1  0
 30 32  1  0
 30 81  1  0
 30 82  1  0
 31 34  1  0
 31 40  1  6
 31 83  1  0
 32 84  1  0
 32 85  1  0
 33 37  1  0
 33 38  1  0
 33 41  1  1
 34 42  1  0
 35 86  1  0
 35 87  1  0
 35 88  1  0
 36 39  1  0
 36 89  1  0
 36 90  1  0
 37 39  2  0
 37 43  1  0
 38 44  1  0
 38 91  1  0
 38 92  1  0
 39 93  1  0
 40 94  1  0
 40 95  1  0
 40 96  1  0
 41 97  1  0
 41 98  1  0
 41 99  1  0
 42 46  1  0
 42100  1  0
 42101  1  0
 43 45  1  0
 43102  1  0
 43103  1  0
 44 45  1  0
 44104  1  0
 44105  1  0
 45106  1  0
 46 47  1  0
 46108  1  0
 46109  1  0
 47 49  1  0
 47 50  1  1
 47110  1  0
 48 51  1  0
 48111  1  0
 49112  1  0
 49113  1  0
 50114  1  0
 50115  1  0
 50116  1  0
 51 52  1  0
 51117  1  0
 52 54  1  0
 52118  1  0
 53 54  1  0
 53 56  1  1
 53119  1  0
 54120  1  0
 55 58  1  0
 55121  1  0
 56122  1  0
 56123  1  0
 57 59  1  0
 57124  1  0
 58 61  1  0
 58126  1  0
 59 64  1  0
 59127  1  0
 60 66  1  0
 60128  1  0
 61 63  1  0
 61129  1  0
 62 63  1  0
 62 68  1  1
 62130  1  0
 63131  1  0
 64 67  1  0
 64133  1  0
 65 67  1  0
 65 72  1  1
 65134  1  0
 66 69  1  0
 66135  1  0
 67136  1  0
 68138  1  0
 68139  1  0
 69 71  1  0
 69140  1  0
 70 71  1  0
 70 73  1  6
 70142  1  0
 71144  1  0
 72145  1  0
 72146  1  0
 72147  1  0
 73152  1  0
 73153  1  0
 73154  1  0
M  END
> <Name>
441891

> <OBJECTID>
9223372260196417550

> <PUBCHEM_COMPOUND_CID>
441891

> <PUBCHEM_COMPOUND_CANONICALIZED>
1

> <PUBCHEM_CACTVS_COMPLEXITY>
1900

> <PUBCHEM_CACTVS_HBOND_ACCEPTOR>
22

> <PUBCHEM_CACTVS_HBOND_DONOR>
13

> <PUBCHEM_CACTVS_ROTATABLE_BOND>
14

> <PUBCHEM_CACTVS_SUBSKEYS>
AAADcfB8PgAAAAAAAAAAAAAAAAAAAaIAAAA0aJEiAAASAGCAAAAAGgAACAAADxSwgAMCCAAABgCAAiBCAAAAAAAgAAAACAAAAAgREAIAAQAiQAAFwAAPAAPA4PwPgAAAAAAAAADAAAQAACAAAYAADAAAAA==

> <PUBCHEM_IUPAC_OPENEYE_NAME>
(2S,3R,4R,5R,6S)-2-[(2R,3S,4S,5R,6R)-4-hydroxy-2-(hydroxymethyl)-6-[[(1S,2S,4S,6R,7S,8R,9S,12S,13R,16S)-6-hydroxy-7,9,13-trimethyl-6-[(3R)-3-methyl-4-[(2R,3R,4S,5S,6R)-3,4,5-trihydroxy-6-(hydroxymethyl)tetrahydropyran-2-yl]oxy-butyl]-5-oxapentacyclo[10.8.0.02,9.04,8.013,18]icos-18-en-16-yl]oxy]-5-[(2S,3R,4R,5R,6S)-3,4,5-trihydroxy-6-methyl-tetrahydropyran-2-yl]oxy-tetrahydropyran-3-yl]oxy-6-methyl-tetrahydropyran-3,4,5-triol

> <PUBCHEM_IUPAC_CAS_NAME>
(2S,3R,4R,5R,6S)-2-[[(2R,3S,4S,5R,6R)-4-hydroxy-2-(hydroxymethyl)-6-[[(1S,2S,4S,6R,7S,8R,9S,12S,13R,16S)-6-hydroxy-7,9,13-trimethyl-6-[(3R)-3-methyl-4-[[(2R,3R,4S,5S,6R)-3,4,5-trihydroxy-6-(hydroxymethyl)-2-oxanyl]oxy]butyl]-5-oxapentacyclo[10.8.0.02,9.04,8.013,18]eicos-18-en-16-yl]oxy]-5-[[(2S,3R,4R,5R,6S)-3,4,5-trihydroxy-6-methyl-2-oxanyl]oxy]-3-oxanyl]oxy]-6-methyloxane-3,4,5-triol

> <PUBCHEM_IUPAC_NAME_MARKUP>
(2<I>S</I>,3<I>R</I>,4<I>R</I>,5<I>R</I>,6<I>S</I>)-2-[(2<I>R</I>,3<I>S</I>,4<I>S</I>,5<I>R</I>,6<I>R</I>)-4-hydroxy-2-(hydroxymethyl)-6-[[(1<I>S</I>,2<I>S</I>,4<I>S</I>,6<I>R</I>,7<I>S</I>,8<I>R</I>,9<I>S</I>,12<I>S</I>,13<I>R</I>,16<I>S</I>)-6-hydroxy-7,9,13-trimethyl-6-[(3<I>R</I>)-3-methyl-4-[(2<I>R</I>,3<I>R</I>,4<I>S</I>,5<I>S</I>,6<I>R</I>)-3,4,5-trihydroxy-6-(hydroxymethyl)oxan-2-yl]oxybutyl]-5-oxapentacyclo[10.8.0.0<SUP>2,9</SUP>.0<SUP>4,8</SUP>.0<SUP>13,18</SUP>]icos-18-en-16-yl]oxy]-5-[(2<I>S</I>,3<I>R</I>,4<I>R</I>,5<I>R</I>,6<I>S</I>)-3,4,5-trihydroxy-6-methyloxan-2-yl]oxyoxan-3-yl]oxy-6-methyloxane-3,4,5-triol

> <PUBCHEM_IUPAC_NAME>
(2S,3R,4R,5R,6S)-2-[(2R,3S,4S,5R,6R)-4-hydroxy-2-(hydroxymethyl)-6-[[(1S,2S,4S,6R,7S,8R,9S,12S,13R,16S)-6-hydroxy-7,9,13-trimethyl-6-[(3R)-3-methyl-4-[(2R,3R,4S,5S,6R)-3,4,5-trihydroxy-6-(hydroxymethyl)oxan-2-yl]oxybutyl]-5-oxapentacyclo[10.8.0.02,9.04,8.013,18]icos-18-en-16-yl]oxy]-5-[(2S,3R,4R,5R,6S)-3,4,5-trihydroxy-6-methyloxan-2-yl]oxyoxan-3-yl]oxy-6-methyloxane-3,4,5-triol

> <PUBCHEM_IUPAC_SYSTEMATIC_NAME>
(2S,3R,4R,5R,6S)-2-[(2R,3S,4S,5R,6R)-2-(hydroxymethyl)-6-[[(1S,2S,4S,6R,7S,8R,9S,12S,13R,16S)-6-[(3R)-4-[(2R,3R,4S,5S,6R)-6-(hydroxymethyl)-3,4,5-tris(oxidanyl)oxan-2-yl]oxy-3-methyl-butyl]-7,9,13-trimethyl-6-oxidanyl-5-oxapentacyclo[10.8.0.02,9.04,8.013,18]icos-18-en-16-yl]oxy]-5-[(2S,3R,4R,5R,6S)-6-methyl-3,4,5-tris(oxidanyl)oxan-2-yl]oxy-4-oxidanyl-oxan-3-yl]oxy-6-methyl-oxane-3,4,5-triol

> <PUBCHEM_IUPAC_TRADITIONAL_NAME>
(2S,3R,4R,5R,6S)-2-[(2R,3S,4S,5R,6R)-4-hydroxy-6-[[(1S,2S,4S,6R,7S,8R,9S,12S,13R,16S)-6-hydroxy-7,9,13-trimethyl-6-[(3R)-3-methyl-4-[(2R,3R,4S,5S,6R)-3,4,5-trihydroxy-6-methylol-tetrahydropyran-2-yl]oxy-butyl]-5-oxapentacyclo[10.8.0.02,9.04,8.013,18]eicos-18-en-16-yl]oxy]-2-methylol-5-[(2S,3R,4R,5R,6S)-3,4,5-trihydroxy-6-methyl-tetrahydropyran-2-yl]oxy-tetrahydropyran-3-yl]oxy-6-methyl-tetrahydropyran-3,4,5-triol

> <PUBCHEM_IUPAC_INCHI>
InChI=1S/C51H84O22/c1-20(19-65-45-39(60)38(59)35(56)30(17-52)69-45)9-14-51(64)21(2)32-29(73-51)16-28-26-8-7-24-15-25(10-12-49(24,5)27(26)11-13-50(28,32)6)68-48-44(72-47-41(62)37(58)34(55)23(4)67-47)42(63)43(31(18-53)70-48)71-46-40(61)36(57)33(54)22(3)66-46/h7,20-23,25-48,52-64H,8-19H2,1-6H3/t20-,21+,22+,23+,25+,26-,27+,28+,29+,30-,31-,32+,33+,34+,35-,36-,37-,38+,39-,40-,41-,42+,43-,44-,45-,46+,47+,48-,49+,50+,51-/m1/s1

> <PUBCHEM_IUPAC_INCHIKEY>
LVTJOONKWUXEFR-UEZXSUPNSA-N

> <PUBCHEM_XLOGP3_AA>
-1.3

> <PUBCHEM_EXACT_MASS>
1048.5454243

> <PUBCHEM_MOLECULAR_FORMULA>
C51H84O22

> <PUBCHEM_MOLECULAR_WEIGHT>
1049.2

> <PUBCHEM_OPENEYE_CAN_SMILES>
CC1C2C(CC3C2(CCC4C3CC=C5C4(CCC(C5)OC6C(C(C(C(O6)CO)OC7C(C(C(C(O7)C)O)O)O)O)OC8C(C(C(C(O8)C)O)O)O)C)C)OC1(CCC(C)COC9C(C(C(C(O9)CO)O)O)O)O

> <PUBCHEM_OPENEYE_ISO_SMILES>
C[C@H]1[C@H]2[C@H](C[C@@H]3[C@@]2(CC[C@H]4[C@H]3CC=C5[C@@]4(CC[C@@H](C5)O[C@H]6[C@@H]([C@H]([C@@H]([C@H](O6)CO)O[C@H]7[C@@H]([C@@H]([C@H]([C@@H](O7)C)O)O)O)O)O[C@H]8[C@@H]([C@@H]([C@H]([C@@H](O8)C)O)O)O)C)C)O[C@@]1(CC[C@@H](C)CO[C@H]9[C@@H]([C@H]([C@@H]([C@H](O9)CO)O)O)O)O

> <PUBCHEM_CACTVS_TPSA>
346

> <PUBCHEM_MONOISOTOPIC_WEIGHT>
1048.5454243

> <PUBCHEM_TOTAL_CHARGE>
0

> <PUBCHEM_HEAVY_ATOM_COUNT>
73

> <PUBCHEM_ATOM_DEF_STEREO_COUNT>
31

> <PUBCHEM_ATOM_UDEF_STEREO_COUNT>
0

> <PUBCHEM_BOND_DEF_STEREO_COUNT>
0

> <PUBCHEM_BOND_UDEF_STEREO_COUNT>
0

> <PUBCHEM_ISOTOPIC_ATOM_COUNT>
0

> <PUBCHEM_COMPONENT_COUNT>
1

> <PUBCHEM_CACTVS_TAUTO_COUNT>
1

> <PUBCHEM_COORDINATE_TYPE>
1
5
255

> <PUBCHEM_BONDANNOTATIONS>
58  12  6
59  14  5
61  15  5
63  16  6
64  17  5
66  18  6
67  19  6
34  2  6
69  21  6
71  22  5
23  35  5
24  74  6
25  75  6
26  76  5
27  77  6
28  78  6
45  3  5
48  3  5
31  40  6
33  41  5
47  50  5
55  5  5
53  56  5
51  6  6
57  6  6
62  68  5
65  72  5
52  7  5
70  73  6
54  8  6
60  8  5

$$$$
442021
  SciTegic09112316443D

 55 61  0  0  1  0            999 V2000
   -3.6592    1.9013    0.1821 O   0  0
    0.7034    3.6865    0.2303 O   0  0
    4.6159   -1.7245   -0.3014 O   0  0
    4.9635    1.0265   -0.2931 O   0  0
   -1.9448   -2.6680    0.5840 N   0  0  1  0  0  0
    0.1381    1.4309    0.3873 N   0  0
   -0.2386   -0.9696    0.5264 C   0  0  2  0  0  0
   -0.9348    0.4244    0.4053 C   0  0  2  0  0  0
   -0.8917   -2.0956   -0.2999 C   0  0  2  0  0  0
   -1.7350    0.7086   -0.8767 C   0  0  1  0  0  0
   -2.5039   -0.5218   -1.3801 C   0  0  1  0  0  0
   -1.4496   -1.6136   -1.6413 C   0  0
   -0.3634   -1.5319    1.9491 C   0  0
    1.1977   -0.6048    0.2488 C   0  0
   -1.7427   -2.1635    1.9498 C   0  0
   -2.5045    2.0338   -0.6574 C   0  0  2  0  0  0
   -3.5442   -1.0452   -0.4086 C   0  0
   -3.3185   -2.4492    0.1041 C   0  0
    1.3787    0.7850    0.2542 C   0  0
   -1.6137    3.1049    0.0338 C   0  0
   -0.1284    2.7800    0.2249 C   0  0
    2.2795   -1.4549    0.0630 C   0  0
   -4.5632   -0.2854    0.0214 C   0  0
   -4.7239    1.1420   -0.3784 C   0  0
    2.6330    1.3478    0.0727 C   0  0
    3.5463   -0.8984   -0.1207 C   0  0
    3.7215    0.4923   -0.1128 C   0  0
    4.9348   -2.0856   -1.6432 C   0  0
    5.7478    1.2480    0.8764 C   0  0
   -1.5597    0.6234    1.2862 H   0  0
   -0.1689   -2.8978   -0.4926 H   0  0
   -1.0167    0.9400   -1.6816 H   0  0
   -2.9899   -0.2847   -2.3353 H   0  0
   -1.8919   -2.4509   -2.1969 H   0  0
   -0.6386   -1.2313   -2.2738 H   0  0
   -0.2587   -0.7705    2.7300 H   0  0
    0.3934   -2.3047    2.1391 H   0  0
   -1.8096   -2.9771    2.6789 H   0  0
   -2.4857   -1.4066    2.2293 H   0  0
   -2.8329    2.4291   -1.6273 H   0  0
   -4.0357   -2.7145    0.8916 H   0  0
   -3.5219   -3.1559   -0.7109 H   0  0
   -2.0085    3.3607    1.0255 H   0  0
   -1.6644    4.0228   -0.5659 H   0  0
    2.1495   -2.5325    0.0741 H   0  0
   -5.2787   -0.6883    0.7327 H   0  0
   -4.8023    1.2732   -1.4637 H   0  0
   -5.6544    1.5226    0.0563 H   0  0
    2.7877    2.4204    0.0628 H   0  0
    5.1751   -1.1969   -2.2352 H   0  0
    4.1029   -2.6292   -2.1020 H   0  0
    5.8110   -2.7394   -1.6232 H   0  0
    5.9304    0.3059    1.4030 H   0  0
    5.2506    1.9604    1.5425 H   0  0
    6.7092    1.6688    0.5697 H   0  0
  1 16  1  0
  1 24  1  0
  2 21  2  0
  3 26  1  0
  3 28  1  0
  4 27  1  0
  4 29  1  0
  5  9  1  0
  5 15  1  0
  5 18  1  0
  6  8  1  0
  6 19  1  0
  6 21  1  0
  7  8  1  0
  7  9  1  0
  7 13  1  0
  7 14  1  0
  8 10  1  0
  8 30  1  0
  9 12  1  0
  9 31  1  0
 10 11  1  0
 10 16  1  0
 10 32  1  0
 11 12  1  0
 11 17  1  0
 11 33  1  0
 12 34  1  0
 12 35  1  0
 13 15  1  0
 13 36  1  0
 13 37  1  0
 14 19  1  0
 14 22  2  0
 15 38  1  0
 15 39  1  0
 16 20  1  0
 16 40  1  0
 17 18  1  0
 17 23  2  0
 18 41  1  0
 18 42  1  0
 19 25  2  0
 20 21  1  0
 20 43  1  0
 20 44  1  0
 22 26  1  0
 22 45  1  0
 23 24  1  0
 23 46  1  0
 24 47  1  0
 24 48  1  0
 25 27  1  0
 25 49  1  0
 26 27  2  0
 28 50  1  0
 28 51  1  0
 28 52  1  0
 29 53  1  0
 29 54  1  0
 29 55  1  0
M  END
> <Name>
442021

> <OBJECTID>
9223372264491384846

> <PUBCHEM_COMPOUND_CID>
442021

> <PUBCHEM_CONFORMER_RMSD>
0.8

> <PUBCHEM_CONFORMER_DIVERSEORDER>
1

> <PUBCHEM_MMFF94_PARTIAL_CHARGES>
29
1 -0.56
11 0.14
14 -0.14
15 0.27
16 0.28
17 -0.28
18 0.41
19 0.12
2 -0.57
20 0.06
21 0.57
22 -0.15
23 -0.29
24 0.42
25 -0.15
26 0.08
27 0.08
28 0.28
29 0.28
3 -0.36
4 -0.36
45 0.15
46 0.15
49 0.15
5 -0.81
6 -0.48
7 0.14
8 0.3
9 0.27

> <PUBCHEM_EFFECTIVE_ROTOR_COUNT>
3.4

> <PUBCHEM_PHARMACOPHORE_FEATURES>
12
1 1 acceptor
1 2 acceptor
1 3 acceptor
1 4 acceptor
1 5 cation
5 5 7 9 13 15 rings
5 6 7 8 14 19 rings
6 14 19 22 25 26 27 rings
6 5 9 11 12 17 18 rings
6 6 8 10 16 20 21 rings
6 7 8 9 10 11 12 rings
7 1 10 11 16 17 23 24 rings

> <PUBCHEM_HEAVY_ATOM_COUNT>
29

> <PUBCHEM_ATOM_DEF_STEREO_COUNT>
6

> <PUBCHEM_ATOM_UDEF_STEREO_COUNT>
0

> <PUBCHEM_BOND_DEF_STEREO_COUNT>
0

> <PUBCHEM_BOND_UDEF_STEREO_COUNT>
0

> <PUBCHEM_ISOTOPIC_ATOM_COUNT>
0

> <PUBCHEM_COMPONENT_COUNT>
1

> <PUBCHEM_CACTVS_TAUTO_COUNT>
1

> <PUBCHEM_CONFORMER_ID>
0006BEA500000001

> <PUBCHEM_MMFF94_ENERGY>
137.3317

> <PUBCHEM_FEATURE_SELFOVERLAP>
63.122

> <PUBCHEM_SHAPE_FINGERPRINT>
10165383 225 17531792615888071535
10675989 125 17036395295405365533
10863032 1 18412542102860746655
10906281 52 18339375131365292788
10948715 1 18264487287450184643
10967382 1 18338229376114466297
1100329 8 17114099963323427811
11578080 2 17130409397402798321
12011746 2 18335976485848398285
12035758 1 18335993059663132729
12156800 1 17181157193585018617
12293681 4 18261955257767749459
12422481 6 17914923992185216555
12553582 1 18339063986712160461
12788726 201 18265615368862888394
13140716 1 18049150082264995593
13224815 77 18412828014791842778
14251751 93 18265891350465702941
14787075 74 18260547810260031311
14790565 3 18123755257819890385
14955137 171 18339938069003245305
15196674 1 18412260618850808004
15209289 33 18333729152357744873
16945 1 18195227018365129191
17349148 13 18113888373984460064
19591789 44 18266456516812113905
19930381 70 17041474489131687291
20775438 99 16906039846905653567
21279426 13 18338515240458018157
22907989 373 18046945677684109476
23557571 272 18410579500617472628
23559900 14 18413105040335220584
3178227 256 18335150774186435241
335352 9 18339360756040785501
3380486 145 18270694189007060818
34934 24 18410567388113333200
392239 28 18041290954123419851
404807 14 16192015457644188062
4058900 60 17607526822391237597
469060 322 15792026618146156107
5104073 3 18413103940480884162
5283173 99 18336262362744840652
59755656 215 18195247711491129613
70251023 43 17839444932900275839
7226269 152 18188477060611078296
9709674 26 18411983551175142276

> <PUBCHEM_SHAPE_MULTIPOLES>
563.37
9.25
3.51
1.27
9.54
1.61
0.12
-0.44
-1.56
-0.96
0.28
-0.06
-0.85
1.24

> <PUBCHEM_SHAPE_SELFOVERLAP>
1278.551

> <PUBCHEM_SHAPE_VOLUME>
291.8

> <PUBCHEM_COORDINATE_TYPE>
2
5
10

$$$$
442089
  SciTegic09112316442D

116122  0  0  1  0            999 V2000
    6.8671   -2.6210    0.0000 O   0  0
   10.1678    4.2290    0.0000 O   0  0
    8.4778    4.6079    0.0000 O   0  0
    5.1350   -2.6210    0.0000 O   0  0
    6.8671   -4.6210    0.0000 O   0  0
    9.6509    5.8821    0.0000 O   0  0
    5.1350   -5.6210    0.0000 O   0  0
    3.4030   -4.6210    0.0000 O   0  0
   12.0767    4.8259    0.0000 O   0  0
    6.0010   -6.1210    0.0000 O   0  0
    2.5369   -3.1210    0.0000 O   0  0
   12.5142    6.7774    0.0000 O   0  0
   11.0429    8.1321    0.0000 O   0  0
    8.5991   -5.6210    0.0000 O   0  0
    8.5991   -7.6210    0.0000 O   0  0
    9.3528    8.5110    0.0000 O   0  0
    6.8671   -8.6210    0.0000 O   0  0
    4.2690   -7.1210    0.0000 O   0  0
    6.8671    0.6260    0.0000 C   0  0  2  0  0  0
    7.8420    0.4035    0.0000 C   0  0  2  0  0  0
    8.5622    1.1561    0.0000 C   0  0  1  0  0  0
    8.2628    2.1538    0.0000 C   0  0  2  0  0  0
    7.2331   -0.4975    0.0000 C   0  0
    6.8671   -1.6210    0.0000 C   0  0  2  0  0  0
    6.5447    1.6165    0.0000 C   0  0
    8.2759   -0.4975    0.0000 C   0  0
    6.0852    0.0025    0.0000 C   0  0
    7.2473    2.3855    0.0000 C   0  0
    8.9946    2.9548    0.0000 C   0  0  2  0  0  0
    9.6141    0.8902    0.0000 C   0  0
    7.8420   -1.3984    0.0000 C   0  0
    6.0852   -0.9975    0.0000 C   0  0
    9.1598    0.3543    0.0000 C   0  0
   10.0524    2.7133    0.0000 C   0  0
   10.3643    1.6741    0.0000 C   0  0
    8.2590    3.6321    0.0000 C   0  0
    9.2134    3.9306    0.0000 C   0  0
    5.1843   -1.4313    0.0000 C   0  0
    6.0010   -3.1210    0.0000 C   0  0  2  0  0  0
    6.0010   -4.1210    0.0000 C   0  0  1  0  0  0
    5.1350   -4.6210    0.0000 C   0  0  2  0  0  0
   10.3866    5.2048    0.0000 C   0  0  2  0  0  0
    4.2690   -3.1210    0.0000 C   0  0  1  0  0  0
    4.2690   -4.1210    0.0000 C   0  0  1  0  0  0
   11.3410    5.5032    0.0000 C   0  0  1  0  0  0
    3.4030   -2.6210    0.0000 C   0  0
    6.8671   -5.6210    0.0000 C   0  0  2  0  0  0
   11.5598    6.4790    0.0000 C   0  0  2  0  0  0
    9.8697    6.8579    0.0000 C   0  0  1  0  0  0
   10.8241    7.1563    0.0000 C   0  0  1  0  0  0
    7.7331   -6.1210    0.0000 C   0  0  1  0  0  0
    7.7331   -7.1210    0.0000 C   0  0  2  0  0  0
    9.1340    7.5352    0.0000 C   0  0
    6.0010   -7.1210    0.0000 C   0  0  1  0  0  0
    6.8671   -7.6210    0.0000 C   0  0  1  0  0  0
    5.1350   -7.6210    0.0000 C   0  0
    8.6707    0.2144    0.0000 H   0  0
    8.0092    2.9650    0.0000 H   0  0
    7.7346   -0.8620    0.0000 H   0  0
    7.7346   -0.1329    0.0000 H   0  0
    6.1653    2.1069    0.0000 H   0  0
    5.9967    1.3266    0.0000 H   0  0
    8.7606   -0.8840    0.0000 H   0  0
    8.7606   -0.1109    0.0000 H   0  0
    5.8162    0.5611    0.0000 H   0  0
    5.4808   -0.1354    0.0000 H   0  0
    7.4867    2.9575    0.0000 H   0  0
    6.7248    2.7192    0.0000 H   0  0
    9.3616    0.3240    0.0000 H   0  0
   10.1288    0.5445    0.0000 H   0  0
    7.8420   -2.0184    0.0000 H   0  0
    8.4464   -1.5364    0.0000 H   0  0
    8.6627   -0.0162    0.0000 H   0  0
    9.5304   -0.1428    0.0000 H   0  0
    9.6569    0.7248    0.0000 H   0  0
   10.6680    2.7873    0.0000 H   0  0
   10.0849    3.3325    0.0000 H   0  0
   10.7322    1.1751    0.0000 H   0  0
   10.9189    1.9513    0.0000 H   0  0
    8.6789    4.0882    0.0000 H   0  0
    7.8029    4.0521    0.0000 H   0  0
    7.8390    3.1760    0.0000 H   0  0
    4.6720   -1.0821    0.0000 H   0  0
    5.1379   -2.0496    0.0000 H   0  0
    6.0010   -2.5010    0.0000 H   0  0
    6.0010   -4.7410    0.0000 H   0  0
    4.5981   -4.9310    0.0000 H   0  0
   10.8427    4.7848    0.0000 H   0  0
    4.2690   -2.5010    0.0000 H   0  0
    4.2690   -4.7410    0.0000 H   0  0
   11.9328    5.6882    0.0000 H   0  0
    3.8015   -2.1460    0.0000 H   0  0
    3.0044   -2.1460    0.0000 H   0  0
    7.4040   -5.3110    0.0000 H   0  0
    4.5981   -5.9310    0.0000 H   0  0
   11.6954    7.0840    0.0000 H   0  0
    9.2780    6.6728    0.0000 H   0  0
    3.4030   -5.2410    0.0000 H   0  0
   10.3680    7.5763    0.0000 H   0  0
    8.2700   -6.4310    0.0000 H   0  0
   12.6685    5.0109    0.0000 H   0  0
    2.0000   -2.8110    0.0000 H   0  0
    7.7331   -7.7410    0.0000 H   0  0
    8.5618    7.7738    0.0000 H   0  0
    8.7997    7.0131    0.0000 H   0  0
    5.4641   -6.8110    0.0000 H   0  0
   12.6499    7.3824    0.0000 H   0  0
    7.4040   -7.9310    0.0000 H   0  0
   11.6346    8.3171    0.0000 H   0  0
    9.1360   -5.9310    0.0000 H   0  0
    4.7365   -8.0959    0.0000 H   0  0
    5.5335   -8.0959    0.0000 H   0  0
    8.5991   -8.2410    0.0000 H   0  0
    8.8967    8.9310    0.0000 H   0  0
    6.3301   -8.9310    0.0000 H   0  0
    3.7320   -7.4310    0.0000 H   0  0
 24  1  1  6
 39  1  1  1
  2 37  1  0
 42  2  1  6
  3 37  2  0
  4 39  1  0
  4 43  1  0
 40  5  1  6
 47  5  1  1
  6 42  1  0
  6 49  1  0
 41  7  1  1
  7 95  1  0
 44  8  1  6
  8 98  1  0
 45  9  1  1
  9101  1  0
 10 47  1  0
 10 54  1  0
 11 46  1  0
 11102  1  0
 48 12  1  6
 12107  1  0
 50 13  1  1
 13109  1  0
 51 14  1  6
 14110  1  0
 52 15  1  1
 15113  1  0
 16 53  1  0
 16114  1  0
 55 17  1  6
 17115  1  0
 18 56  1  0
 18116  1  0
 19 20  1  0
 19 23  1  0
 19 25  1  6
 19 27  1  0
 20 21  1  0
 20 26  1  0
 20 57  1  1
 21 22  1  0
 21 30  1  0
 21 33  1  6
 22 28  1  0
 22 29  1  0
 22 58  1  1
 23 24  1  0
 23 59  1  0
 23 60  1  0
 24 31  1  0
 24 32  1  0
 25 28  1  0
 25 61  1  0
 25 62  1  0
 26 31  1  0
 26 63  1  0
 26 64  1  0
 27 32  1  0
 27 65  1  0
 27 66  1  0
 28 67  1  0
 28 68  1  0
 29 34  1  0
 29 36  1  1
 29 37  1  0
 30 35  1  0
 30 69  1  0
 30 70  1  0
 31 71  1  0
 31 72  1  0
 32 38  2  0
 33 73  1  0
 33 74  1  0
 33 75  1  0
 34 35  1  0
 34 76  1  0
 34 77  1  0
 35 78  1  0
 35 79  1  0
 36 80  1  0
 36 81  1  0
 36 82  1  0
 38 83  1  0
 38 84  1  0
 39 40  1  0
 39 85  1  0
 40 41  1  0
 40 86  1  0
 41 44  1  0
 41 87  1  0
 42 45  1  0
 42 88  1  0
 43 44  1  0
 43 46  1  1
 43 89  1  0
 44 90  1  0
 45 48  1  0
 45 91  1  0
 46 92  1  0
 46 93  1  0
 47 51  1  0
 47 94  1  0
 48 50  1  0
 48 96  1  0
 49 50  1  0
 49 53  1  6
 49 97  1  0
 50 99  1  0
 51 52  1  0
 51100  1  0
 52 55  1  0
 52103  1  0
 53104  1  0
 53105  1  0
 54 55  1  0
 54 56  1  1
 54106  1  0
 55108  1  0
 56111  1  0
 56112  1  0
M  END
> <Name>
442089

> <OBJECTID>
9223372268786352142

> <PUBCHEM_COMPOUND_CID>
442089

> <PUBCHEM_COMPOUND_CANONICALIZED>
1

> <PUBCHEM_CACTVS_COMPLEXITY>
1450

> <PUBCHEM_CACTVS_HBOND_ACCEPTOR>
18

> <PUBCHEM_CACTVS_HBOND_DONOR>
11

> <PUBCHEM_CACTVS_ROTATABLE_BOND>
10

> <PUBCHEM_CACTVS_SUBSKEYS>
AAADcfB8PgAAAAAAAAAAAAAAAAAAAYAAAAA0aNECBgAAAADAAAAAGgAACAAAD1SwgAMCCAAABgCIAgDSCAAAAAAgAAAAAAEAAAgRFBIAIQAiQAAFgAAHIAHI6PyPgAAAAAAAAADAAAYAACAAAYAAAAAAAA==

> <PUBCHEM_IUPAC_OPENEYE_NAME>
[(2S,3R,4S,5S,6R)-3,4,5-trihydroxy-6-(hydroxymethyl)tetrahydropyran-2-yl] (1R,4S,5R,9S,10R,13S)-13-[(2S,3R,4S,5S,6R)-4,5-dihydroxy-6-(hydroxymethyl)-3-[(2S,3R,4S,5S,6R)-3,4,5-trihydroxy-6-(hydroxymethyl)tetrahydropyran-2-yl]oxy-tetrahydropyran-2-yl]oxy-5,9-dimethyl-14-methylene-tetracyclo[11.2.1.01,10.04,9]hexadecane-5-carboxylate

> <PUBCHEM_IUPAC_CAS_NAME>
(1R,4S,5R,9S,10R,13S)-13-[[(2S,3R,4S,5S,6R)-4,5-dihydroxy-6-(hydroxymethyl)-3-[[(2S,3R,4S,5S,6R)-3,4,5-trihydroxy-6-(hydroxymethyl)-2-oxanyl]oxy]-2-oxanyl]oxy]-5,9-dimethyl-14-methylene-5-tetracyclo[11.2.1.01,10.04,9]hexadecanecarboxylic acid [(2S,3R,4S,5S,6R)-3,4,5-trihydroxy-6-(hydroxymethyl)-2-oxanyl] ester

> <PUBCHEM_IUPAC_NAME_MARKUP>
[(2<I>S</I>,3<I>R</I>,4<I>S</I>,5<I>S</I>,6<I>R</I>)-3,4,5-trihydroxy-6-(hydroxymethyl)oxan-2-yl] (1<I>R</I>,4<I>S</I>,5<I>R</I>,9<I>S</I>,10<I>R</I>,13<I>S</I>)-13-[(2<I>S</I>,3<I>R</I>,4<I>S</I>,5<I>S</I>,6<I>R</I>)-4,5-dihydroxy-6-(hydroxymethyl)-3-[(2<I>S</I>,3<I>R</I>,4<I>S</I>,5<I>S</I>,6<I>R</I>)-3,4,5-trihydroxy-6-(hydroxymethyl)oxan-2-yl]oxyoxan-2-yl]oxy-5,9-dimethyl-14-methylidenetetracyclo[11.2.1.0<SUP>1,10</SUP>.0<SUP>4,9</SUP>]hexadecane-5-carboxylate

> <PUBCHEM_IUPAC_NAME>
[(2S,3R,4S,5S,6R)-3,4,5-trihydroxy-6-(hydroxymethyl)oxan-2-yl] (1R,4S,5R,9S,10R,13S)-13-[(2S,3R,4S,5S,6R)-4,5-dihydroxy-6-(hydroxymethyl)-3-[(2S,3R,4S,5S,6R)-3,4,5-trihydroxy-6-(hydroxymethyl)oxan-2-yl]oxyoxan-2-yl]oxy-5,9-dimethyl-14-methylidenetetracyclo[11.2.1.01,10.04,9]hexadecane-5-carboxylate

> <PUBCHEM_IUPAC_SYSTEMATIC_NAME>
[(2S,3R,4S,5S,6R)-6-(hydroxymethyl)-3,4,5-tris(oxidanyl)oxan-2-yl] (1R,4S,5R,9S,10R,13S)-13-[(2S,3R,4S,5S,6R)-6-(hydroxymethyl)-3-[(2S,3R,4S,5S,6R)-6-(hydroxymethyl)-3,4,5-tris(oxidanyl)oxan-2-yl]oxy-4,5-bis(oxidanyl)oxan-2-yl]oxy-5,9-dimethyl-14-methylidene-tetracyclo[11.2.1.01,10.04,9]hexadecane-5-carboxylate

> <PUBCHEM_IUPAC_TRADITIONAL_NAME>
(1R,4S,5R,9S,10R,13S)-13-[(2S,3R,4S,5S,6R)-4,5-dihydroxy-6-methylol-3-[(2S,3R,4S,5S,6R)-3,4,5-trihydroxy-6-methylol-tetrahydropyran-2-yl]oxy-tetrahydropyran-2-yl]oxy-5,9-dimethyl-14-methylene-tetracyclo[11.2.1.01,10.04,9]hexadecane-5-carboxylic acid [(2S,3R,4S,5S,6R)-3,4,5-trihydroxy-6-methylol-tetrahydropyran-2-yl] ester

> <PUBCHEM_IUPAC_INCHI>
InChI=1S/C38H60O18/c1-16-11-37-9-5-20-35(2,7-4-8-36(20,3)34(50)55-32-29(49)26(46)23(43)18(13-40)52-32)21(37)6-10-38(16,15-37)56-33-30(27(47)24(44)19(14-41)53-33)54-31-28(48)25(45)22(42)17(12-39)51-31/h17-33,39-49H,1,4-15H2,2-3H3/t17-,18-,19-,20+,21+,22-,23-,24-,25+,26+,27+,28-,29-,30-,31+,32+,33+,35-,36-,37-,38+/m1/s1

> <PUBCHEM_IUPAC_INCHIKEY>
UEDUENGHJMELGK-HYDKPPNVSA-N

> <PUBCHEM_XLOGP3_AA>
-1.2

> <PUBCHEM_EXACT_MASS>
804.37796506

> <PUBCHEM_MOLECULAR_FORMULA>
C38H60O18

> <PUBCHEM_MOLECULAR_WEIGHT>
804.9

> <PUBCHEM_OPENEYE_CAN_SMILES>
CC12CCCC(C1CCC34C2CCC(C3)(C(=C)C4)OC5C(C(C(C(O5)CO)O)O)OC6C(C(C(C(O6)CO)O)O)O)(C)C(=O)OC7C(C(C(C(O7)CO)O)O)O

> <PUBCHEM_OPENEYE_ISO_SMILES>
C[C@@]12CCC[C@@]([C@H]1CC[C@]34[C@H]2CC[C@](C3)(C(=C)C4)O[C@H]5[C@@H]([C@H]([C@@H]([C@H](O5)CO)O)O)O[C@H]6[C@@H]([C@H]([C@@H]([C@H](O6)CO)O)O)O)(C)C(=O)O[C@H]7[C@@H]([C@H]([C@@H]([C@H](O7)CO)O)O)O

> <PUBCHEM_CACTVS_TPSA>
295

> <PUBCHEM_MONOISOTOPIC_WEIGHT>
804.37796506

> <PUBCHEM_TOTAL_CHARGE>
0

> <PUBCHEM_HEAVY_ATOM_COUNT>
56

> <PUBCHEM_ATOM_DEF_STEREO_COUNT>
21

> <PUBCHEM_ATOM_UDEF_STEREO_COUNT>
0

> <PUBCHEM_BOND_DEF_STEREO_COUNT>
0

> <PUBCHEM_BOND_UDEF_STEREO_COUNT>
0

> <PUBCHEM_ISOTOPIC_ATOM_COUNT>
0

> <PUBCHEM_COMPONENT_COUNT>
1

> <PUBCHEM_CACTVS_TAUTO_COUNT>
1

> <PUBCHEM_COORDINATE_TYPE>
1
5
255

> <PUBCHEM_BONDANNOTATIONS>
24  1  6
39  1  5
48  12  6
50  13  5
51  14  6
52  15  5
55  17  6
19  25  6
42  2  6
20  57  5
21  33  6
22  58  5
29  36  5
43  46  5
49  53  6
40  5  6
47  5  5
54  56  5
41  7  5
44  8  6
45  9  5

$$$$
442138
  SciTegic09112316443D

 76 82  0  0  1  0            999 V2000
   -2.3557   -2.2244   -0.0008 O   0  0
   -2.9198    2.3822   -2.4268 O   0  0
    2.3285    1.4685    2.8283 O   0  0
    3.1621   -1.9158   -0.5670 O   0  0
   -3.2733   -4.0114    1.1004 O   0  0
    4.7737   -2.9785   -1.8043 O   0  0
   -1.6429    0.0871   -0.4317 C   0  0  2  0  0  0
   -0.5519   -0.0021    0.7132 C   0  0  2  0  0  0
   -2.0962    1.5731   -0.2219 C   0  0  1  0  0  0
    0.0921    1.4256    0.6920 C   0  0  2  0  0  0
   -0.6742    2.1262   -0.4674 C   0  0  1  0  0  0
    1.6248    1.2841    0.5030 C   0  0  2  0  0  0
   -2.7976   -0.9194   -0.3958 C   0  0  2  0  0  0
   -0.9025    0.2264   -1.7574 C   0  0
   -3.2688    2.1669   -1.0561 C   0  0  2  0  0  0
    0.6449   -0.9014    0.6232 C   0  0
   -0.3313    1.4405   -1.7695 C   0  0
    1.8062   -0.2244    0.5126 C   0  0
   -3.8834   -0.5777    0.6187 C   0  0  1  0  0  0
    2.4560    2.0930    1.5494 C   0  0  2  0  0  0
   -4.5323    1.2782   -1.0850 C   0  0
   -4.8735    0.5233    0.2023 C   0  0
    3.1562   -0.8673    0.4201 C   0  0  2  0  0  0
   -4.5337   -1.9425    0.8355 C   0  0  1  0  0  0
   -0.7911   -0.8333   -2.7883 C   0  0
   -3.6340    3.5482   -0.4774 C   0  0
    4.3065    0.0177   -0.0246 C   0  0  1  0  0  0
    3.9555    2.2218    1.1829 C   0  0
    0.4866   -2.3783    0.7726 C   0  0
    4.7833    0.9436    1.0856 C   0  0
   -3.3479   -2.8628    0.6925 C   0  0
    1.9278    3.5395    1.6856 C   0  0
    5.3336   -1.0323   -0.4444 C   0  0  1  0  0  0
   -5.2090   -2.0728    2.1895 C   0  0
    4.4361   -2.0900   -1.0380 C   0  0
    6.3452   -0.5116   -1.4511 C   0  0
   -1.0410   -0.1553    1.6845 H   0  0
   -2.3708    1.7238    0.8343 H   0  0
   -0.1655    1.9078    1.6420 H   0  0
   -0.5873    3.2132   -0.4862 H   0  0
    1.9084    1.6620   -0.4870 H   0  0
   -3.2284   -1.0476   -1.3949 H   0  0
    0.3038    1.8438   -2.5428 H   0  0
   -3.4119   -0.2771    1.5652 H   0  0
   -4.4754    0.5709   -1.9220 H   0  0
   -5.3975    1.9041   -1.3465 H   0  0
   -4.9744    1.2393    1.0274 H   0  0
   -5.8737    0.0895    0.0763 H   0  0
    3.3787   -1.3322    1.3912 H   0  0
   -5.2371   -2.1818    0.0289 H   0  0
   -1.7659   -1.0381   -3.2402 H   0  0
   -0.4068   -1.7594   -2.3519 H   0  0
   -0.1086   -0.5366   -3.5916 H   0  0
   -3.9581    3.4809    0.5660 H   0  0
   -2.7797    4.2320   -0.5317 H   0  0
   -4.4356    4.0214   -1.0565 H   0  0
    4.0240    0.5999   -0.9135 H   0  0
    4.4482    2.8402    1.9463 H   0  0
    4.0491    2.7725    0.2372 H   0  0
   -0.2278   -2.6052    1.5704 H   0  0
    1.4204   -2.8753    1.0508 H   0  0
    0.1345   -2.8259   -0.1603 H   0  0
    5.8205    1.2411    0.8885 H   0  0
    4.7944    0.4273    2.0531 H   0  0
   -3.6825    2.7826   -2.8780 H   0  0
    0.9455    3.5836    2.1644 H   0  0
    2.5823    4.1334    2.3352 H   0  0
    1.8727    4.0384    0.7125 H   0  0
    5.8413   -1.4663    0.4252 H   0  0
    2.8482    1.9837    3.4686 H   0  0
   -5.6418   -3.0718    2.3095 H   0  0
   -4.4966   -1.9277    3.0092 H   0  0
   -6.0139   -1.3396    2.3000 H   0  0
    6.9382    0.3059   -1.0304 H   0  0
    7.0344   -1.3084   -1.7511 H   0  0
    5.8556   -0.1475   -2.3612 H   0  0
  1 13  1  0
  1 31  1  0
  2 15  1  0
  2 65  1  0
  3 20  1  0
  3 70  1  0
  4 23  1  0
  4 35  1  0
  5 31  2  0
  6 35  2  0
  7  8  1  0
  7  9  1  0
  7 13  1  0
  7 14  1  0
  8 10  1  0
  8 16  1  0
  8 37  1  0
  9 11  1  0
  9 15  1  0
  9 38  1  0
 10 11  1  0
 10 12  1  0
 10 39  1  0
 11 17  1  0
 11 40  1  0
 12 18  1  0
 12 20  1  0
 12 41  1  0
 13 19  1  0
 13 42  1  0
 14 17  2  0
 14 25  1  0
 15 21  1  0
 15 26  1  0
 16 18  2  0
 16 29  1  0
 17 43  1  0
 18 23  1  0
 19 22  1  0
 19 24  1  0
 19 44  1  0
 20 28  1  0
 20 32  1  0
 21 22  1  0
 21 45  1  0
 21 46  1  0
 22 47  1  0
 22 48  1  0
 23 27  1  0
 23 49  1  0
 24 31  1  0
 24 34  1  0
 24 50  1  0
 25 51  1  0
 25 52  1  0
 25 53  1  0
 26 54  1  0
 26 55  1  0
 26 56  1  0
 27 30  1  0
 27 33  1  0
 27 57  1  0
 28 30  1  0
 28 58  1  0
 28 59  1  0
 29 60  1  0
 29 61  1  0
 29 62  1  0
 30 63  1  0
 30 64  1  0
 32 66  1  0
 32 67  1  0
 32 68  1  0
 33 35  1  0
 33 36  1  0
 33 69  1  0
 34 71  1  0
 34 72  1  0
 34 73  1  0
 36 74  1  0
 36 75  1  0
 36 76  1  0
M  END
> <Name>
442138

> <OBJECTID>
9223372273081319438

> <PUBCHEM_COMPOUND_CID>
442138

> <PUBCHEM_CONFORMER_RMSD>
0.8

> <PUBCHEM_CONFORMER_DIVERSEORDER>
1

> <PUBCHEM_MMFF94_PARTIAL_CHARGES>
27
1 -0.43
11 0.14
12 0.14
13 0.28
14 -0.28
15 0.28
16 -0.28
17 -0.29
18 -0.28
2 -0.68
20 0.28
23 0.42
24 0.06
25 0.14
29 0.14
3 -0.68
31 0.66
33 0.06
35 0.66
4 -0.43
43 0.15
5 -0.57
6 -0.57
65 0.4
7 0.14
70 0.4
8 0.14

> <PUBCHEM_EFFECTIVE_ROTOR_COUNT>
2

> <PUBCHEM_PHARMACOPHORE_FEATURES>
12
1 2 acceptor
1 2 donor
1 3 acceptor
1 3 donor
1 5 acceptor
1 6 acceptor
5 1 13 19 24 31 rings
5 4 23 27 33 35 rings
5 8 10 12 16 18 rings
7 12 18 20 23 27 28 30 rings
7 7 8 9 10 11 14 17 rings
7 7 9 13 15 19 21 22 rings

> <PUBCHEM_HEAVY_ATOM_COUNT>
36

> <PUBCHEM_ATOM_DEF_STEREO_COUNT>
14

> <PUBCHEM_ATOM_UDEF_STEREO_COUNT>
0

> <PUBCHEM_BOND_DEF_STEREO_COUNT>
0

> <PUBCHEM_BOND_UDEF_STEREO_COUNT>
0

> <PUBCHEM_ISOTOPIC_ATOM_COUNT>
0

> <PUBCHEM_COMPONENT_COUNT>
1

> <PUBCHEM_CACTVS_TAUTO_COUNT>
4

> <PUBCHEM_CONFORMER_ID>
0006BF1A00000001

> <PUBCHEM_MMFF94_ENERGY>
145.3332

> <PUBCHEM_FEATURE_SELFOVERLAP>
61.168

> <PUBCHEM_SHAPE_FINGERPRINT>
10165383 225 17971475100294920460
10290309 65 18267875994714067502
10369192 42 17980474891464941608
10675989 125 16967727465197126653
10764073 3 17986695717679161697
1100329 8 16971670313767152617
11045977 3 18412824690001742009
11370993 144 18273219703213396641
12422481 6 18128828601990847975
12623949 98 17985001528526521127
12633046 712 18189039907353448070
12788726 201 15792001226362786461
131258 38 14395564611053131175
13224815 77 17895175727830522864
13402501 40 18411421752146875618
13540713 4 18339349838113028280
13583140 156 18272645779107006253
13757389 114 16465591032015236548
13782708 43 18410576188565366698
14790565 3 17615972101815074685
15064986 96 17059237953913371215
15131766 46 16628258073606820937
15361156 5 18412262865319346213
17349148 13 14779532479438394312
17913733 40 17701808015726694528
1813 80 17096080419796306423
18608769 82 18337114570245260402
20511986 3 15791726356755555221
20609170 17 18195277509622204006
21033648 29 18263346011508551821
21792961 116 18271251513561133414
22122407 14 16988571221094612113
22182313 1 18339347647916843752
22393880 68 18335416829459945434
23559900 14 18408601469939632780
23569943 247 15840154265155449286
244849 19 18201707475480143160
350125 39 18408609183684903224
4015057 19 17987498386563059349
4058900 60 17615974301107472361
4098825 35 18114187394198175598
460360 51 18059026003006203720
46194498 28 18335145340820476172
469060 322 16515402967222621583
508706 21 18335688464397321527
6287921 2 18192147311702094324
6823239 73 18410006654790545200

> <PUBCHEM_SHAPE_MULTIPOLES>
705.65
11.57
3.96
2.08
6.42
0.19
0.38
4.34
0.15
-2.02
-0.74
0.08
-0.32
4.62

> <PUBCHEM_SHAPE_SELFOVERLAP>
1567.906

> <PUBCHEM_SHAPE_VOLUME>
382.4

> <PUBCHEM_COORDINATE_TYPE>
2
5
10

$$$$
442146
  SciTegic09112316443D

 38 40  0  0  1  0            999 V2000
   -1.7698    0.9903    0.7426 O   0  0
    1.7922   -1.5657    1.5922 O   0  0
   -4.0336    0.7773    0.4796 O   0  0
   -1.0681   -0.9154   -0.4073 C   0  0  1  0  0  0
   -0.6195    0.1468    0.5887 C   0  0  1  0  0  0
   -0.2977   -2.2305   -0.2998 C   0  0
   -2.5467   -1.0742   -0.0568 C   0  0  1  0  0  0
    2.0851   -1.2718    0.2213 C   0  0  1  0  0  0
    0.5939    0.9019    0.1311 C   0  0
    1.1844   -2.1477   -0.6812 C   0  0
    1.8772    0.2077   -0.0298 C   0  0
    0.7570    2.2037   -0.1904 C   0  0
   -2.9062    0.3151    0.3974 C   0  0
    2.1882    2.4514   -0.5838 C   0  0
    2.7970    1.0976   -0.4439 C   0  0
   -3.3947   -1.5288   -1.2328 C   0  0
    3.5460   -1.7142    0.0015 C   0  0
   -0.1847    3.3564   -0.2287 C   0  0
   -0.9808   -0.5269   -1.4327 H   0  0
   -0.4290   -0.2805    1.5808 H   0  0
   -0.7675   -2.9661   -0.9652 H   0  0
   -0.3945   -2.6423    0.7125 H   0  0
   -2.6838   -1.7477    0.7978 H   0  0
    1.5549   -3.1819   -0.6476 H   0  0
    1.2775   -1.8286   -1.7278 H   0  0
    2.6689    3.1679    0.0893 H   0  0
    2.2625    2.8065   -1.6164 H   0  0
    3.8356    0.8934   -0.6574 H   0  0
   -4.4492   -1.5972   -0.9440 H   0  0
   -3.3329   -0.8230   -2.0686 H   0  0
   -3.0792   -2.5135   -1.5906 H   0  0
    3.6771   -2.7747    0.2492 H   0  0
    3.8678   -1.5673   -1.0353 H   0  0
    4.2283   -1.1694    0.6651 H   0  0
    1.8892   -2.5243    1.7242 H   0  0
   -1.2231    3.0870   -0.0403 H   0  0
   -0.1538    3.8306   -1.2155 H   0  0
    0.1070    4.1033    0.5167 H   0  0
  1  5  1  0
  1 13  1  0
  2  8  1  0
  2 35  1  0
  3 13  2  0
  4  5  1  0
  4  6  1  0
  4  7  1  0
  4 19  1  0
  5  9  1  0
  5 20  1  0
  6 10  1  0
  6 21  1  0
  6 22  1  0
  7 13  1  0
  7 16  1  0
  7 23  1  0
  8 10  1  0
  8 11  1  0
  8 17  1  0
  9 11  1  0
  9 12  2  0
 10 24  1  0
 10 25  1  0
 11 15  2  0
 12 14  1  0
 12 18  1  0
 14 15  1  0
 14 26  1  0
 14 27  1  0
 15 28  1  0
 16 29  1  0
 16 30  1  0
 16 31  1  0
 17 32  1  0
 17 33  1  0
 17 34  1  0
 18 36  1  0
 18 37  1  0
 18 38  1  0
M  END
> <Name>
442146

> <OBJECTID>
9223372277376286734

> <PUBCHEM_COMPOUND_CID>
442146

> <PUBCHEM_CONFORMER_RMSD>
0.6

> <PUBCHEM_CONFORMER_DIVERSEORDER>
1
2

> <PUBCHEM_MMFF94_PARTIAL_CHARGES>
15
1 -0.43
11 -0.14
12 -0.28
13 0.66
14 0.28
15 -0.29
18 0.14
2 -0.68
28 0.15
3 -0.57
35 0.4
5 0.42
7 0.06
8 0.42
9 -0.14

> <PUBCHEM_EFFECTIVE_ROTOR_COUNT>
1.2

> <PUBCHEM_PHARMACOPHORE_FEATURES>
6
1 2 acceptor
1 2 donor
1 3 acceptor
5 1 4 5 7 13 rings
5 9 11 12 14 15 rings
7 4 5 6 8 9 10 11 rings

> <PUBCHEM_HEAVY_ATOM_COUNT>
18

> <PUBCHEM_ATOM_DEF_STEREO_COUNT>
4

> <PUBCHEM_ATOM_UDEF_STEREO_COUNT>
0

> <PUBCHEM_BOND_DEF_STEREO_COUNT>
0

> <PUBCHEM_BOND_UDEF_STEREO_COUNT>
0

> <PUBCHEM_ISOTOPIC_ATOM_COUNT>
0

> <PUBCHEM_COMPONENT_COUNT>
1

> <PUBCHEM_CACTVS_TAUTO_COUNT>
2

> <PUBCHEM_CONFORMER_ID>
0006BF2200000001

> <PUBCHEM_MMFF94_ENERGY>
40.4982

> <PUBCHEM_FEATURE_SELFOVERLAP>
30.504

> <PUBCHEM_SHAPE_FINGERPRINT>
10062212 137 18273209807556356071
104564 63 18121782720847047508
10967382 1 18267026235343843388
10980938 120 18408888468212390537
11132069 177 18200868466182219090
11578080 2 17844219926720325841
116883 192 18123749759970964725
12553582 1 18263640667380814674
12644460 14 18265918937441312321
13009979 54 18059864938920574370
13140716 1 18412266107819058011
13172582 1 18340485569241884531
14178342 30 18124304171466111184
14181834 199 18334856142954224422
15042514 8 17543348255325917938
15442244 35 18412265008296828361
15536298 74 18272653463272847570
15881359 60 17910084963726799788
16945 1 18051980517109904174
17357779 13 18051962632760621684
19591789 44 16970552694631505707
20559304 39 18341046440489026923
20645477 70 18408602587153109215
20871998 184 17907011781904609500
21501502 16 18340769329568542527
21524375 3 17901664092222713436
21639500 275 18192977426059159007
22112679 90 18343578542653195594
2334 1 18411984701524841967
23388829 49 18339921524171945040
23402539 116 18268983211871394174
23419403 2 17260400164534663952
23463225 33 18411421691447205226
23559900 14 17910691079252630972
23598291 2 18343303665231438039
238 59 17830973096659348605
25 1 18116719714677662892
2748010 2 18411700980375187644
34934 24 18411418418772179728
352729 6 17473264756741850632
353137 74 17909270522190181803
5939293 188 18411982451067714276
6992083 37 18199762353447983777
7364860 26 18341895237849009464
7832392 63 18413112744952804581
81228 2 17904766574507073336
90525 40 18129951177424049383

> <PUBCHEM_SHAPE_MULTIPOLES>
352.82
5.25
3.26
0.94
3.04
1.49
-0.07
-0.97
0.31
-1.51
0.46
0.12
-0.25
-0.97

> <PUBCHEM_SHAPE_SELFOVERLAP>
759.892

> <PUBCHEM_SHAPE_VOLUME>
196.2

> <PUBCHEM_COORDINATE_TYPE>
2
5
10

$$$$
442428
  SciTegic09112316443D

 73 77  0  0  1  0            999 V2000
    3.4624   -0.2826    0.7385 O   0  0
    1.3089    2.6065    0.1345 O   0  0
    4.7934   -1.0040   -1.0889 O   0  0
    1.3610    0.5491   -0.9647 O   0  0
    5.0455    1.9975    1.7261 O   0  0
    3.3142    4.0186    2.8545 O   0  0
    6.7209   -1.8849    0.8525 O   0  0
    5.2513   -4.1258    1.6028 O   0  0
    3.7483   -4.5264   -0.7902 O   0  0
   -0.3582    4.6698    0.8555 O   0  0
   -3.1781   -0.4935   -0.0639 O   0  0
   -1.9091    1.6892   -4.2142 O   0  0
   -4.3666    1.0009   -3.6951 O   0  0
   -7.9688   -2.5757    3.4000 O   0  0
    3.1742    1.0941    0.4958 C   0  0  2  0  0  0
    3.6192    1.9255    1.6990 C   0  0  2  0  0  0
    3.0752    3.3519    1.6177 C   0  0  1  0  0  0
    4.7692   -0.6277    0.2922 C   0  0  2  0  0  0
    1.6720    1.2326    0.2491 C   0  0  1  0  0  0
    5.3339   -1.7469    1.1651 C   0  0  1  0  0  0
    1.5721    3.3444    1.3292 C   0  0  1  0  0  0
    4.6060   -3.0660    0.9006 C   0  0  1  0  0  0
    4.5866   -3.3904   -0.5936 C   0  0  2  0  0  0
    4.0507   -2.1905   -1.3869 C   0  0  2  0  0  0
    1.0287    4.7554    1.1275 C   0  0
    4.1492   -2.4113   -2.8939 C   0  0
    0.0556    0.5673   -1.3582 C   0  0
   -0.9284    0.0247   -0.5312 C   0  0
   -0.2936    1.1294   -2.5867 C   0  0
   -2.2657    0.0536   -0.9287 C   0  0
   -2.6103    0.5978   -2.1696 C   0  0
   -4.5030    0.0308   -0.2436 C   0  0  1  0  0  0
   -1.6267    1.1430   -2.9986 C   0  0
   -4.9758   -0.1567   -1.6840 C   0  0
   -4.0193    0.5472   -2.6112 C   0  0
   -5.4299   -0.6659    0.7302 C   0  0
   -6.0712    0.0674    1.7277 C   0  0
   -5.6404   -2.0407    0.6289 C   0  0
   -6.9244   -0.5750    2.6252 C   0  0
   -6.4936   -2.6829    1.5263 C   0  0
   -7.1355   -1.9500    2.5244 C   0  0
    3.7023    1.4302   -0.4087 H   0  0
    3.3149    1.4379    2.6334 H   0  0
    3.6147    3.9036    0.8381 H   0  0
    5.4591    0.2170    0.3607 H   0  0
    1.1238    0.7670    1.0786 H   0  0
    5.2650   -1.4950    2.2289 H   0  0
    1.0143    2.8811    2.1545 H   0  0
    3.5799   -3.0085    1.2845 H   0  0
    5.5958   -3.6664   -0.9231 H   0  0
    2.9926   -2.0210   -1.1491 H   0  0
    1.5061    5.2507    0.2755 H   0  0
    1.1677    5.3743    2.0185 H   0  0
    5.1873   -2.5890   -3.1956 H   0  0
    3.5373   -3.2557   -3.2231 H   0  0
    3.8153   -1.5164   -3.4309 H   0  0
    5.2950    2.5381    2.4950 H   0  0
    2.8343    3.5395    3.5515 H   0  0
    6.8122   -1.9567   -0.1126 H   0  0
    4.7748   -4.9471    1.3924 H   0  0
    3.8663   -4.8273   -1.7066 H   0  0
   -0.4698    4.1112    0.0672 H   0  0
   -0.6647   -0.4297    0.4202 H   0  0
    0.4848    1.5490   -3.2197 H   0  0
   -4.4726    1.1035   -0.0013 H   0  0
   -5.9763    0.2704   -1.8156 H   0  0
   -4.9962   -1.2088   -1.9895 H   0  0
   -5.9169    1.1392    1.8192 H   0  0
   -5.1406   -2.6313   -0.1339 H   0  0
   -1.0873    2.0068   -4.6259 H   0  0
   -7.4218    0.0012    3.4006 H   0  0
   -6.6478   -3.7551    1.4388 H   0  0
   -7.9979   -3.5237    3.1844 H   0  0
  1 15  1  0
  1 18  1  0
  2 19  1  0
  2 21  1  0
  3 18  1  0
  3 24  1  0
  4 19  1  0
  4 27  1  0
  5 16  1  0
  5 57  1  0
  6 17  1  0
  6 58  1  0
  7 20  1  0
  7 59  1  0
  8 22  1  0
  8 60  1  0
  9 23  1  0
  9 61  1  0
 10 25  1  0
 10 62  1  0
 11 30  1  0
 11 32  1  0
 12 33  1  0
 12 70  1  0
 13 35  2  0
 14 41  1  0
 14 73  1  0
 15 16  1  0
 15 19  1  0
 15 42  1  0
 16 17  1  0
 16 43  1  0
 17 21  1  0
 17 44  1  0
 18 20  1  0
 18 45  1  0
 19 46  1  0
 20 22  1  0
 20 47  1  0
 21 25  1  0
 21 48  1  0
 22 23  1  0
 22 49  1  0
 23 24  1  0
 23 50  1  0
 24 26  1  0
 24 51  1  0
 25 52  1  0
 25 53  1  0
 26 54  1  0
 26 55  1  0
 26 56  1  0
 27 28  1  0
 27 29  2  0
 28 30  2  0
 28 63  1  0
 29 33  1  0
 29 64  1  0
 30 31  1  0
 31 33  2  0
 31 35  1  0
 32 34  1  0
 32 36  1  0
 32 65  1  0
 34 35  1  0
 34 66  1  0
 34 67  1  0
 36 37  2  0
 36 38  1  0
 37 39  1  0
 37 68  1  0
 38 40  2  0
 38 69  1  0
 39 41  2  0
 39 71  1  0
 40 41  1  0
 40 72  1  0
M  END
> <Name>
442428

> <OBJECTID>
9223372281671254030

> <PUBCHEM_COMPOUND_CID>
442428

> <PUBCHEM_CONFORMER_RMSD>
1.2

> <PUBCHEM_CONFORMER_DIVERSEORDER>
2
204
42
287
179
37
90
206
224
185
285
149
106
105
8
272
253
180
77
290
112
219
33
131
284
93
53
36
154
274
176
211
245
258
157
169
235
4
229
122
200
238
55
256
213
171
57
242
286
186
115
294
225
278
159
3
75
144
78
141
214
175
191
240
32
192
270
79
69
269
228
76
196
207
282
184
43
85
84
266
251
116
120
68
217
267
208
283
13
44
203
178
218
177
280
248
222
161
226
173
249
123
5
198
138
143
48
289
81
188
117
252
83
243
132
124
212
110
156
254
202
121
227
273
139
275
155
67
80
87
113
129
261
268
244
62
89
92
35
174
1
281
263
279
265
148
231
216
210
164
111
162
232
133
237
262
147
264
233
137
291
19
109
102
127
96
151
223
172
73
230
63
49
94
97
250
21
259
140
145
190
128
71
255
220
30
209
39
10
45
166
239
104
247
165
193
146
98
271
199
59
108
257
60
136
292
28
293
181
86
234
125
74
99
16
27
88
47
18
288
160
158
163
6
46
189
187
152
260
9
51
134
40
215
241
114
194
70
107
246
130
95
29
64
72
195
236
197
183
50
65
17
103
170
201
11
41
20
182
61
153
142
118
52
100
7
277
119
168
276
101
15
58
150
66
34
205
82
221
24
56
167
38
26
54
22
31
91
12
23
126
25
135
14

> <PUBCHEM_MMFF94_PARTIAL_CHARGES>
54
1 -0.56
10 -0.68
11 -0.36
12 -0.53
13 -0.57
14 -0.53
15 0.28
16 0.28
17 0.28
18 0.56
19 0.56
2 -0.56
20 0.28
21 0.28
22 0.28
23 0.28
24 0.28
25 0.28
27 0.08
28 -0.15
29 -0.15
3 -0.56
30 0.08
31 0.09
32 0.42
33 0.08
34 0.06
35 0.42
36 -0.14
37 -0.15
38 -0.15
39 -0.15
4 -0.36
40 -0.15
41 0.08
5 -0.68
57 0.4
58 0.4
59 0.4
6 -0.68
60 0.4
61 0.4
62 0.4
63 0.15
64 0.15
68 0.15
69 0.15
7 -0.68
70 0.45
71 0.15
72 0.15
73 0.45
8 -0.68
9 -0.68

> <PUBCHEM_EFFECTIVE_ROTOR_COUNT>
9

> <PUBCHEM_PHARMACOPHORE_FEATURES>
25
1 1 acceptor
1 10 acceptor
1 10 donor
1 11 acceptor
1 12 donor
1 13 acceptor
1 14 donor
1 2 acceptor
1 3 acceptor
1 4 acceptor
1 5 acceptor
1 5 donor
1 6 acceptor
1 6 donor
1 7 acceptor
1 7 donor
1 8 acceptor
1 8 donor
1 9 acceptor
1 9 donor
6 11 30 31 32 34 35 rings
6 2 15 16 17 19 21 rings
6 27 28 29 30 31 33 rings
6 3 18 20 22 23 24 rings
6 36 37 38 39 40 41 rings

> <PUBCHEM_HEAVY_ATOM_COUNT>
41

> <PUBCHEM_ATOM_DEF_STEREO_COUNT>
11

> <PUBCHEM_ATOM_UDEF_STEREO_COUNT>
0

> <PUBCHEM_BOND_DEF_STEREO_COUNT>
0

> <PUBCHEM_BOND_UDEF_STEREO_COUNT>
0

> <PUBCHEM_ISOTOPIC_ATOM_COUNT>
0

> <PUBCHEM_COMPONENT_COUNT>
1

> <PUBCHEM_CACTVS_TAUTO_COUNT>
18

> <PUBCHEM_CONFORMER_ID>
0006C03C00000002

> <PUBCHEM_MMFF94_ENERGY>
132.6286

> <PUBCHEM_FEATURE_SELFOVERLAP>
127.041

> <PUBCHEM_SHAPE_FINGERPRINT>
10169797 241 18272365344414428682
10190108 129 18272654601835658688
10985338 15 17686065294177174668
11135926 11 18199453537095121272
11399510 152 18270403922991938265
12342043 65 18187080641893431351
13673619 4 18186524301905111151
13782708 43 18186521012408977619
14017579 30 18267888111560297129
14950920 106 18272937163401288099
15324884 4 17896854712694545973
15392192 104 17901115432052656867
15776043 110 18059585667272370003
19246450 95 17630889296601742833
21796203 349 18130497566690458706
21814621 53 18409731755904715273
22033318 11 17203344290361907915
2303208 19 18186518804595145499
249057 25 16845564362314792349
2748736 6 13326575104000004283
394071 54 17846212259370222326
42626532 9 18261103037662794901
4408954 64 18125469460860566321
563151 74 18057604480420737001
6201320 77 18263088712786114767
6700243 42 17313096415443232277
86090 222 18114470023456089627

> <PUBCHEM_SHAPE_MULTIPOLES>
761.59
18.58
5.41
3.78
20.98
2.05
2.52
-19.18
-14.45
-9.18
-3.49
5.14
0.75
6.23

> <PUBCHEM_SHAPE_SELFOVERLAP>
1647.83

> <PUBCHEM_SHAPE_VOLUME>
411.2

> <PUBCHEM_COORDINATE_TYPE>
2
5
10

$$$$
442439
  SciTegic09112316443D

 77 81  0  0  1  0            999 V2000
    3.7982   -0.7377   -0.5148 O   0  0
    1.0456   -2.3423    1.2735 O   0  0
    5.4268    0.3580    0.8189 O   0  0
    1.7263   -0.1109    1.3081 O   0  0
    4.6445   -3.5511   -0.2930 O   0  0
    2.3547   -5.3103   -0.4268 O   0  0
    7.3350   -0.3072   -1.2248 O   0  0
    6.4279    1.6370   -2.9973 O   0  0
    5.2969    3.4809   -1.1354 O   0  0
   -1.1543   -3.9716    1.5229 O   0  0
   -2.8433    0.4987    0.1747 O   0  0
   -0.0061    4.3129    1.1755 O   0  0
   -2.4944    4.5768    0.4532 O   0  0
   -6.7677   -0.5340   -3.0765 O   0  0
   -8.6676   -1.3600   -1.2230 O   0  0
    3.1923   -1.7224    0.3222 C   0  0  2  0  0  0
    3.2932   -3.0915   -0.3501 C   0  0  2  0  0  0
    2.4131   -4.1219    0.3577 C   0  0  1  0  0  0
    5.1842   -0.5901   -0.2261 C   0  0  2  0  0  0
    1.7351   -1.3227    0.5541 C   0  0  1  0  0  0
    5.9368   -0.1964   -1.4959 C   0  0  1  0  0  0
    0.9964   -3.5789    0.5597 C   0  0  1  0  0  0
    5.5977    1.2365   -1.9096 C   0  0  1  0  0  0
    5.7952    2.2046   -0.7424 C   0  0  2  0  0  0
    5.0425    1.6983    0.4959 C   0  0  2  0  0  0
    0.1323   -4.5421    1.3674 C   0  0
    5.3280    2.5529    1.7277 C   0  0
    0.6710    0.7337    1.0975 C   0  0
   -0.5721    0.2166    0.7314 C   0  0
    0.8396    2.1103    1.2503 C   0  0
   -1.6516    1.0772    0.5280 C   0  0
   -1.4744    2.4576    0.6605 C   0  0
   -3.9797    1.3114    0.5073 C   0  0  1  0  0  0
   -0.2309    2.9774    1.0284 C   0  0
   -3.8669    2.6966   -0.1267 C   0  0
   -2.6056    3.3600    0.3622 C   0  0
   -5.2314    0.5981    0.0414 C   0  0
   -5.4312    0.3551   -1.3176 C   0  0
   -6.1849    0.1835    0.9714 C   0  0
   -6.5840   -0.3024   -1.7466 C   0  0
   -7.3380   -0.4737    0.5423 C   0  0
   -7.5375   -0.7168   -0.8167 C   0  0
   -9.5915   -1.7502   -0.2089 C   0  0
    3.6984   -1.7418    1.2986 H   0  0
    3.0388   -3.0204   -1.4142 H   0  0
    2.8603   -4.3890    1.3230 H   0  0
    5.6226   -1.5210    0.1405 H   0  0
    1.2681   -1.1641   -0.4298 H   0  0
    5.7069   -0.8785   -2.3225 H   0  0
    0.4992   -3.4050   -0.4044 H   0  0
    4.5609    1.2916   -2.2641 H   0  0
    6.8648    2.3207   -0.5316 H   0  0
    3.9603    1.7267    0.3194 H   0  0
    0.5511   -4.6969    2.3673 H   0  0
    0.0298   -5.5082    0.8643 H   0  0
    5.0217    3.5920    1.5757 H   0  0
    6.3943    2.5331    1.9786 H   0  0
    4.7926    2.1568    2.5976 H   0  0
    4.8868   -3.6626    0.6422 H   0  0
    1.9471   -5.0866   -1.2809 H   0  0
    7.5243   -1.2414   -1.0323 H   0  0
    6.2888    1.0019   -3.7204 H   0  0
    4.3411    3.3958   -1.2933 H   0  0
   -1.6855   -4.5985    2.0427 H   0  0
   -0.7559   -0.8470    0.6239 H   0  0
    1.8102    2.5074    1.5375 H   0  0
   -4.0114    1.4077    1.6027 H   0  0
   -4.7257    3.3161    0.1555 H   0  0
   -3.8010    2.6583   -1.2197 H   0  0
   -4.6863    0.6650   -2.0462 H   0  0
   -6.0427    0.3660    2.0333 H   0  0
   -0.8302    4.8108    1.0633 H   0  0
   -8.0345   -0.7665    1.3203 H   0  0
   -6.0082   -0.1778   -3.5686 H   0  0
   -9.1523   -2.4825    0.4772 H   0  0
  -10.0050   -0.8824    0.3160 H   0  0
  -10.4290   -2.2470   -0.7100 H   0  0
  1 16  1  0
  1 19  1  0
  2 20  1  0
  2 22  1  0
  3 19  1  0
  3 25  1  0
  4 20  1  0
  4 28  1  0
  5 17  1  0
  5 59  1  0
  6 18  1  0
  6 60  1  0
  7 21  1  0
  7 61  1  0
  8 23  1  0
  8 62  1  0
  9 24  1  0
  9 63  1  0
 10 26  1  0
 10 64  1  0
 11 31  1  0
 11 33  1  0
 12 34  1  0
 12 72  1  0
 13 36  2  0
 14 40  1  0
 14 74  1  0
 15 42  1  0
 15 43  1  0
 16 17  1  0
 16 20  1  0
 16 44  1  0
 17 18  1  0
 17 45  1  0
 18 22  1  0
 18 46  1  0
 19 21  1  0
 19 47  1  0
 20 48  1  0
 21 23  1  0
 21 49  1  0
 22 26  1  0
 22 50  1  0
 23 24  1  0
 23 51  1  0
 24 25  1  0
 24 52  1  0
 25 27  1  0
 25 53  1  0
 26 54  1  0
 26 55  1  0
 27 56  1  0
 27 57  1  0
 27 58  1  0
 28 29  1  0
 28 30  2  0
 29 31  2  0
 29 65  1  0
 30 34  1  0
 30 66  1  0
 31 32  1  0
 32 34  2  0
 32 36  1  0
 33 35  1  0
 33 37  1  0
 33 67  1  0
 35 36  1  0
 35 68  1  0
 35 69  1  0
 37 38  2  0
 37 39  1  0
 38 40  1  0
 38 70  1  0
 39 41  2  0
 39 71  1  0
 40 42  2  0
 41 42  1  0
 41 73  1  0
 43 75  1  0
 43 76  1  0
 43 77  1  0
M  END
> <Name>
442439

> <OBJECTID>
9223372285966221326

> <PUBCHEM_COMPOUND_CID>
442439

> <PUBCHEM_CONFORMER_RMSD>
1.2

> <PUBCHEM_CONFORMER_DIVERSEORDER>
1
91
79
32
29
78
39
26
73
99
101
108
24
98
21
45
49
89
95
132
43
47
80
133
105
107
30
113
118
115
71
109
67
90
48
131
28
75
59
23
68
93
66
88
37
82
74
53
117
63
55
100
15
36
126
86
77
9
83
123
35
121
46
62
122
70
114
104
18
27
31
50
97
72
85
84
110
25
13
56
17
41
51
112
106
111
116
64
119
128
40
103
54
12
52
102
34
130
125
127
76
38
129
6
60
120
96
58
124
14
42
57
33
20
7
94
65
92
134
87
22
8
81
61
11
69
4
16
5
2
19
10
44
3

> <PUBCHEM_MMFF94_PARTIAL_CHARGES>
55
1 -0.56
10 -0.68
11 -0.36
12 -0.53
13 -0.57
14 -0.53
15 -0.36
16 0.28
17 0.28
18 0.28
19 0.56
2 -0.56
20 0.56
21 0.28
22 0.28
23 0.28
24 0.28
25 0.28
26 0.28
28 0.08
29 -0.15
3 -0.56
30 -0.15
31 0.08
32 0.09
33 0.42
34 0.08
35 0.06
36 0.42
37 -0.14
38 -0.15
39 -0.15
4 -0.36
40 0.08
41 -0.15
42 0.08
43 0.28
5 -0.68
59 0.4
6 -0.68
60 0.4
61 0.4
62 0.4
63 0.4
64 0.4
65 0.15
66 0.15
7 -0.68
70 0.15
71 0.15
72 0.45
73 0.15
74 0.45
8 -0.68
9 -0.68

> <PUBCHEM_EFFECTIVE_ROTOR_COUNT>
10

> <PUBCHEM_PHARMACOPHORE_FEATURES>
26
1 1 acceptor
1 10 acceptor
1 10 donor
1 11 acceptor
1 12 donor
1 13 acceptor
1 14 donor
1 15 acceptor
1 2 acceptor
1 3 acceptor
1 4 acceptor
1 5 acceptor
1 5 donor
1 6 acceptor
1 6 donor
1 7 acceptor
1 7 donor
1 8 acceptor
1 8 donor
1 9 acceptor
1 9 donor
6 11 31 32 33 35 36 rings
6 2 16 17 18 20 22 rings
6 28 29 30 31 32 34 rings
6 3 19 21 23 24 25 rings
6 37 38 39 40 41 42 rings

> <PUBCHEM_HEAVY_ATOM_COUNT>
43

> <PUBCHEM_ATOM_DEF_STEREO_COUNT>
11

> <PUBCHEM_ATOM_UDEF_STEREO_COUNT>
0

> <PUBCHEM_BOND_DEF_STEREO_COUNT>
0

> <PUBCHEM_BOND_UDEF_STEREO_COUNT>
0

> <PUBCHEM_ISOTOPIC_ATOM_COUNT>
0

> <PUBCHEM_COMPONENT_COUNT>
1

> <PUBCHEM_CACTVS_TAUTO_COUNT>
25

> <PUBCHEM_CONFORMER_ID>
0006C04700000001

> <PUBCHEM_MMFF94_ENERGY>
147.6072

> <PUBCHEM_FEATURE_SELFOVERLAP>
132.121

> <PUBCHEM_SHAPE_FINGERPRINT>
10985338 15 16844706730022920242
11991303 11 17749671912419523083
12107183 9 9222937162863194005
12120059 20 18336543945401917027
12144603 126 18272097063856884977
1361 2 18408327692108857800
13617811 41 18335980955987187337
13692114 37 18411414034365107162
13782708 43 17060330847234017965
14068700 686 18114178580197485437
14767858 380 18409733953973077532
15082195 135 18262515884260349440
15320295 44 18196095434576388614
15361156 5 18336550418223677593
15538507 32 18341331188156925089
15705408 1 17758697559323731078
19319366 153 18336538356874478487
21033648 29 12973892545891851884
21360443 126 18188209926145099018
22149856 69 18200597995343900505
22899556 105 18200606783021385774
23516275 137 17202229406920267631
23522609 53 17987542350091304313
23559900 14 17836074577336025216
24771750 20 17827367888569841565
3103668 31 17903929094682373530
3504750 166 16388448626396359866
437795 51 18409728504181863631
44880168 125 16343412921857424245
4573279 73 18340206293246055919
5912855 24 18127135165290421297
6058803 2 17906176144182186200
86090 222 18200299030828324584

> <PUBCHEM_SHAPE_MULTIPOLES>
796.88
22.16
6.06
1.8
30.92
4.01
-1.14
1.44
-13.22
-4.92
2.03
-0.57
-0.31
-1.53

> <PUBCHEM_SHAPE_SELFOVERLAP>
1720.962

> <PUBCHEM_SHAPE_VOLUME>
431.6

> <PUBCHEM_COORDINATE_TYPE>
2
5
10

$$$$
442971
  SciTegic09112316442D

133141  0  0  1  0            999 V2000
    9.4651   -3.4895    0.0000 O   0  0
    7.7331   -3.4895    0.0000 O   0  0
    9.4651   -5.4895    0.0000 O   0  0
    7.7331   -6.4895    0.0000 O   0  0
    6.0010   -5.4895    0.0000 O   0  0
   10.3312   -3.9895    0.0000 O   0  0
    6.0010   -2.4895    0.0000 O   0  0
    5.1350   -3.9895    0.0000 O   0  0
   11.1972   -6.4895    0.0000 O   0  0
   12.9292   -5.4895    0.0000 O   0  0
    4.2690   -6.4895    0.0000 O   0  0
   12.9292   -3.4895    0.0000 O   0  0
    2.5369   -5.4895    0.0000 O   0  0
    2.5369   -3.4895    0.0000 O   0  0
   10.8882    4.7546    0.0000 N   0  0
    9.4944    2.7074    0.0000 C   0  0  2  0  0  0
    9.6999    3.6800    0.0000 C   0  0  2  0  0  0
   10.3623    2.2107    0.0000 C   0  0  2  0  0  0
   10.6882    3.7869    0.0000 C   0  0  2  0  0  0
   10.3662    1.2107    0.0000 C   0  0  1  0  0  0
   11.0968    2.8806    0.0000 C   0  0
    9.2976    4.5826    0.0000 C   0  0  1  0  0  0
    9.5021    0.7074    0.0000 C   0  0  2  0  0  0
    8.6303    2.2041    0.0000 C   0  0
   10.0305    5.2454    0.0000 C   0  0  1  0  0  0
    8.6342    1.2041    0.0000 C   0  0
    9.4901   -0.3342    0.0000 C   0  0  2  0  0  0
    8.6264    3.2040    0.0000 C   0  0
   11.2781    0.7074    0.0000 C   0  0
   10.0107    6.2745    0.0000 C   0  0
   11.7856    5.2589    0.0000 C   0  0
    8.3192    4.7893    0.0000 C   0  0
   10.3901   -0.8584    0.0000 C   0  0
   11.7895    6.2882    0.0000 C   0  0  2  0  0  0
    8.5402   -0.8584    0.0000 C   0  0
   10.8961    6.7995    0.0000 C   0  0
   11.2902   -0.3342    0.0000 C   0  0
    8.6260    0.1692    0.0000 C   0  0
   10.4027   -1.9434    0.0000 C   0  0
    8.5276   -1.9434    0.0000 C   0  0
    9.4651   -2.4895    0.0000 C   0  0  2  0  0  0
   12.6555    6.7882    0.0000 C   0  0
    8.5991   -3.9895    0.0000 C   0  0  2  0  0  0
    8.5991   -4.9895    0.0000 C   0  0  1  0  0  0
    7.7331   -5.4895    0.0000 C   0  0  2  0  0  0
    6.8671   -3.9895    0.0000 C   0  0  1  0  0  0
    6.8671   -4.9895    0.0000 C   0  0  1  0  0  0
    6.0010   -3.4895    0.0000 C   0  0
   10.3312   -4.9895    0.0000 C   0  0  2  0  0  0
   11.1972   -5.4895    0.0000 C   0  0  1  0  0  0
    5.1350   -4.9895    0.0000 C   0  0  2  0  0  0
   12.0632   -4.9895    0.0000 C   0  0  1  0  0  0
   11.1972   -3.4895    0.0000 C   0  0  2  0  0  0
    4.2690   -5.4895    0.0000 C   0  0  1  0  0  0
   12.0632   -3.9895    0.0000 C   0  0  2  0  0  0
    3.4030   -4.9895    0.0000 C   0  0  1  0  0  0
    4.2690   -3.4895    0.0000 C   0  0  2  0  0  0
    3.4030   -3.9895    0.0000 C   0  0  2  0  0  0
   11.1972   -2.4895    0.0000 C   0  0
    4.2690   -2.4895    0.0000 C   0  0
    8.8546    3.5905    0.0000 H   0  0
   11.1406    1.8690    0.0000 H   0  0
   11.5330    3.8801    0.0000 H   0  0
   11.0974    1.6442    0.0000 H   0  0
   11.4642    2.3812    0.0000 H   0  0
   11.6321    3.1935    0.0000 H   0  0
    9.1361    5.1812    0.0000 H   0  0
   10.2366    0.2796    0.0000 H   0  0
    8.4160    2.7858    0.0000 H   0  0
    8.0201    2.0940    0.0000 H   0  0
    9.2504    5.5828    0.0000 H   0  0
    8.0232    1.3094    0.0000 H   0  0
    8.4244    0.6206    0.0000 H   0  0
    8.9344    3.7422    0.0000 H   0  0
    8.0883    3.5120    0.0000 H   0  0
    8.3185    2.6659    0.0000 H   0  0
   11.8902    0.6084    0.0000 H   0  0
   11.4804    1.2935    0.0000 H   0  0
    9.7904    6.8541    0.0000 H   0  0
    9.4020    6.1567    0.0000 H   0  0
   11.9924    4.6744    0.0000 H   0  0
   12.3968    5.3627    0.0000 H   0  0
    8.4473    5.3959    0.0000 H   0  0
    7.7125    4.9174    0.0000 H   0  0
    8.1910    4.1827    0.0000 H   0  0
   12.3259    5.9772    0.0000 H   0  0
    8.3379   -0.2724    0.0000 H   0  0
    7.9281   -0.9575    0.0000 H   0  0
   11.2916    7.2770    0.0000 H   0  0
   10.4933    7.2708    0.0000 H   0  0
   11.8295   -0.6400    0.0000 H   0  0
    8.9380    0.7049    0.0000 H   0  0
    8.0902    0.4812    0.0000 H   0  0
    8.3139   -0.3666    0.0000 H   0  0
   10.6185   -2.5246    0.0000 H   0  0
   11.0123   -1.8302    0.0000 H   0  0
    7.9180   -1.8302    0.0000 H   0  0
    8.3118   -2.5246    0.0000 H   0  0
   10.0027   -2.7984    0.0000 H   0  0
   12.9655    6.2513    0.0000 H   0  0
   13.1925    7.0982    0.0000 H   0  0
   12.3455    7.3252    0.0000 H   0  0
    8.5991   -3.3695    0.0000 H   0  0
    8.5991   -5.6095    0.0000 H   0  0
    7.1962   -5.7995    0.0000 H   0  0
    6.8671   -3.3695    0.0000 H   0  0
    6.3301   -4.6795    0.0000 H   0  0
    5.3905   -3.3818    0.0000 H   0  0
    5.7890   -4.0721    0.0000 H   0  0
    9.7942   -4.6795    0.0000 H   0  0
    7.1962   -6.7995    0.0000 H   0  0
   11.7341   -5.7995    0.0000 H   0  0
    5.1350   -5.6095    0.0000 H   0  0
    5.4641   -2.1795    0.0000 H   0  0
   12.6002   -4.6795    0.0000 H   0  0
   10.6603   -3.1795    0.0000 H   0  0
    3.7320   -5.7995    0.0000 H   0  0
   12.0632   -3.3695    0.0000 H   0  0
    2.8660   -4.6795    0.0000 H   0  0
   11.7341   -6.7995    0.0000 H   0  0
    4.8059   -3.1795    0.0000 H   0  0
    3.4030   -3.3695    0.0000 H   0  0
   11.8172   -2.4895    0.0000 H   0  0
   11.1972   -1.8695    0.0000 H   0  0
   10.5772   -2.4895    0.0000 H   0  0
   13.4662   -5.1795    0.0000 H   0  0
    3.7320   -6.7995    0.0000 H   0  0
   13.4662   -3.7995    0.0000 H   0  0
    4.8890   -2.4895    0.0000 H   0  0
    4.2690   -1.8695    0.0000 H   0  0
    3.6490   -2.4895    0.0000 H   0  0
    2.0000   -5.1795    0.0000 H   0  0
    2.5369   -2.8695    0.0000 H   0  0
 41  1  1  1
 43  1  1  1
  2 43  1  0
  2 46  1  0
 44  3  1  6
 49  3  1  6
 45  4  1  1
  4111  1  0
 47  5  1  6
 51  5  1  1
  6 49  1  0
  6 53  1  0
  7 48  1  0
  7114  1  0
  8 51  1  0
  8 57  1  0
 50  9  1  1
  9120  1  0
 52 10  1  1
 10126  1  0
 54 11  1  6
 11127  1  0
 55 12  1  6
 12128  1  0
 56 13  1  6
 13132  1  0
 58 14  1  1
 14133  1  0
 15 19  1  0
 15 25  1  0
 15 31  1  0
 16 17  1  0
 16 18  1  0
 16 24  1  0
 16 28  1  1
 17 19  1  0
 17 22  1  0
 17 61  1  6
 18 20  1  0
 18 21  1  0
 18 62  1  6
 19 21  1  0
 19 63  1  6
 20 23  1  0
 20 29  1  0
 20 64  1  1
 21 65  1  0
 21 66  1  0
 22 25  1  0
 22 32  1  6
 22 67  1  0
 23 26  1  0
 23 27  1  0
 23 68  1  6
 24 26  1  0
 24 69  1  0
 24 70  1  0
 25 30  1  0
 25 71  1  6
 26 72  1  0
 26 73  1  0
 27 33  1  0
 27 35  1  0
 27 38  1  1
 28 74  1  0
 28 75  1  0
 28 76  1  0
 29 37  1  0
 29 77  1  0
 29 78  1  0
 30 36  1  0
 30 79  1  0
 30 80  1  0
 31 34  1  0
 31 81  1  0
 31 82  1  0
 32 83  1  0
 32 84  1  0
 32 85  1  0
 33 37  2  0
 33 39  1  0
 34 36  1  0
 34 42  1  6
 34 86  1  0
 35 40  1  0
 35 87  1  0
 35 88  1  0
 36 89  1  0
 36 90  1  0
 37 91  1  0
 38 92  1  0
 38 93  1  0
 38 94  1  0
 39 41  1  0
 39 95  1  0
 39 96  1  0
 40 41  1  0
 40 97  1  0
 40 98  1  0
 41 99  1  0
 42100  1  0
 42101  1  0
 42102  1  0
 43 44  1  0
 43103  1  0
 44 45  1  0
 44104  1  0
 45 47  1  0
 45105  1  0
 46 47  1  0
 46 48  1  1
 46106  1  0
 47107  1  0
 48108  1  0
 48109  1  0
 49 50  1  0
 49110  1  0
 50 52  1  0
 50112  1  0
 51 54  1  0
 51113  1  0
 52 55  1  0
 52115  1  0
 53 55  1  0
 53 59  1  1
 53116  1  0
 54 56  1  0
 54117  1  0
 55118  1  0
 56 58  1  0
 56119  1  0
 57 58  1  0
 57 60  1  6
 57121  1  0
 58122  1  0
 59123  1  0
 59124  1  0
 59125  1  0
 60129  1  0
 60130  1  0
 60131  1  0
M  END
> <Name>
442971

> <OBJECTID>
9223372290261188622

> <PUBCHEM_COMPOUND_CID>
442971

> <PUBCHEM_COMPOUND_CANONICALIZED>
1

> <PUBCHEM_CACTVS_COMPLEXITY>
1570

> <PUBCHEM_CACTVS_HBOND_ACCEPTOR>
15

> <PUBCHEM_CACTVS_HBOND_DONOR>
8

> <PUBCHEM_CACTVS_ROTATABLE_BOND>
7

> <PUBCHEM_CACTVS_SUBSKEYS>
AAADcfB+PAAAAAAAAAAAAAAAAAAAAeIAAAA8aJEiAAAWAHiAAAAAHgAACAAADzzxgAcCCAMABgCAAiBCAAAAAAAgAAAACAAIAAgREAIAgQAmQAAFwACPAAPQ4PwPgAAAAAAAAADAAAQAACAAASAACQAAAA==

> <PUBCHEM_IUPAC_OPENEYE_NAME>
(2S,3R,4R,5R,6S)-2-[(2R,3S,4S,5R,6R)-4-hydroxy-2-(hydroxymethyl)-6-[[(1S,2S,7S,10R,11S,14S,15R,16S,17R,20S,23S)-10,14,16,20-tetramethyl-22-azahexacyclo[12.10.0.02,11.05,10.015,23.017,22]tetracos-4-en-7-yl]oxy]-5-[(2S,3R,4R,5R,6S)-3,4,5-trihydroxy-6-methyl-tetrahydropyran-2-yl]oxy-tetrahydropyran-3-yl]oxy-6-methyl-tetrahydropyran-3,4,5-triol

> <PUBCHEM_IUPAC_CAS_NAME>
(2S,3R,4R,5R,6S)-2-[[(2R,3S,4S,5R,6R)-4-hydroxy-2-(hydroxymethyl)-6-[[(1S,2S,7S,10R,11S,14S,15R,16S,17R,20S,23S)-10,14,16,20-tetramethyl-22-azahexacyclo[12.10.0.02,11.05,10.015,23.017,22]tetracos-4-en-7-yl]oxy]-5-[[(2S,3R,4R,5R,6S)-3,4,5-trihydroxy-6-methyl-2-oxanyl]oxy]-3-oxanyl]oxy]-6-methyloxane-3,4,5-triol

> <PUBCHEM_IUPAC_NAME_MARKUP>
(2<I>S</I>,3<I>R</I>,4<I>R</I>,5<I>R</I>,6<I>S</I>)-2-[(2<I>R</I>,3<I>S</I>,4<I>S</I>,5<I>R</I>,6<I>R</I>)-4-hydroxy-2-(hydroxymethyl)-6-[[(1<I>S</I>,2<I>S</I>,7<I>S</I>,10<I>R</I>,11<I>S</I>,14<I>S</I>,15<I>R</I>,16<I>S</I>,17<I>R</I>,20<I>S</I>,23<I>S</I>)-10,14,16,20-tetramethyl-22-azahexacyclo[12.10.0.0<SUP>2,11</SUP>.0<SUP>5,10</SUP>.0<SUP>15,23</SUP>.0<SUP>17,22</SUP>]tetracos-4-en-7-yl]oxy]-5-[(2<I>S</I>,3<I>R</I>,4<I>R</I>,5<I>R</I>,6<I>S</I>)-3,4,5-trihydroxy-6-methyloxan-2-yl]oxyoxan-3-yl]oxy-6-methyloxane-3,4,5-triol

> <PUBCHEM_IUPAC_NAME>
(2S,3R,4R,5R,6S)-2-[(2R,3S,4S,5R,6R)-4-hydroxy-2-(hydroxymethyl)-6-[[(1S,2S,7S,10R,11S,14S,15R,16S,17R,20S,23S)-10,14,16,20-tetramethyl-22-azahexacyclo[12.10.0.02,11.05,10.015,23.017,22]tetracos-4-en-7-yl]oxy]-5-[(2S,3R,4R,5R,6S)-3,4,5-trihydroxy-6-methyloxan-2-yl]oxyoxan-3-yl]oxy-6-methyloxane-3,4,5-triol

> <PUBCHEM_IUPAC_SYSTEMATIC_NAME>
(2S,3R,4R,5R,6S)-2-[(2R,3S,4S,5R,6R)-2-(hydroxymethyl)-5-[(2S,3R,4R,5R,6S)-6-methyl-3,4,5-tris(oxidanyl)oxan-2-yl]oxy-4-oxidanyl-6-[[(1S,2S,7S,10R,11S,14S,15R,16S,17R,20S,23S)-10,14,16,20-tetramethyl-22-azahexacyclo[12.10.0.02,11.05,10.015,23.017,22]tetracos-4-en-7-yl]oxy]oxan-3-yl]oxy-6-methyl-oxane-3,4,5-triol

> <PUBCHEM_IUPAC_TRADITIONAL_NAME>
(2S,3R,4R,5R,6S)-2-[(2R,3S,4S,5R,6R)-4-hydroxy-2-methylol-6-[[(1S,2S,7S,10R,11S,14S,15R,16S,17R,20S,23S)-10,14,16,20-tetramethyl-22-azahexacyclo[12.10.0.02,11.05,10.015,23.017,22]tetracos-4-en-7-yl]oxy]-5-[(2S,3R,4R,5R,6S)-3,4,5-trihydroxy-6-methyl-tetrahydropyran-2-yl]oxy-tetrahydropyran-3-yl]oxy-6-methyl-tetrahydropyran-3,4,5-triol

> <PUBCHEM_IUPAC_INCHI>
InChI=1S/C45H73NO14/c1-19-7-10-28-20(2)31-29(46(28)17-19)16-27-25-9-8-23-15-24(11-13-44(23,5)26(25)12-14-45(27,31)6)57-43-40(60-42-37(53)35(51)33(49)22(4)56-42)38(54)39(30(18-47)58-43)59-41-36(52)34(50)32(48)21(3)55-41/h8,19-22,24-43,47-54H,7,9-18H2,1-6H3/t19-,20+,21-,22-,24-,25+,26-,27-,28+,29-,30+,31-,32-,33-,34+,35+,36+,37+,38-,39+,40+,41-,42-,43+,44-,45-/m0/s1

> <PUBCHEM_IUPAC_INCHIKEY>
TYNQWWGVEGFKRU-AJDPQWBVSA-N

> <PUBCHEM_XLOGP3_AA>
1.8

> <PUBCHEM_EXACT_MASS>
851.503106

> <PUBCHEM_MOLECULAR_FORMULA>
C45H73NO14

> <PUBCHEM_MOLECULAR_WEIGHT>
852.1

> <PUBCHEM_OPENEYE_CAN_SMILES>
CC1CCC2C(C3C(N2C1)CC4C3(CCC5C4CC=C6C5(CCC(C6)OC7C(C(C(C(O7)CO)OC8C(C(C(C(O8)C)O)O)O)O)OC9C(C(C(C(O9)C)O)O)O)C)C)C

> <PUBCHEM_OPENEYE_ISO_SMILES>
C[C@H]1CC[C@@H]2[C@H]([C@H]3[C@@H](N2C1)C[C@@H]4[C@@]3(CC[C@H]5[C@H]4CC=C6[C@@]5(CC[C@@H](C6)O[C@H]7[C@@H]([C@H]([C@@H]([C@H](O7)CO)O[C@H]8[C@@H]([C@@H]([C@H]([C@@H](O8)C)O)O)O)O)O[C@H]9[C@@H]([C@@H]([C@H]([C@@H](O9)C)O)O)O)C)C)C

> <PUBCHEM_CACTVS_TPSA>
221

> <PUBCHEM_MONOISOTOPIC_WEIGHT>
851.503106

> <PUBCHEM_TOTAL_CHARGE>
0

> <PUBCHEM_HEAVY_ATOM_COUNT>
60

> <PUBCHEM_ATOM_DEF_STEREO_COUNT>
26

> <PUBCHEM_ATOM_UDEF_STEREO_COUNT>
0

> <PUBCHEM_BOND_DEF_STEREO_COUNT>
0

> <PUBCHEM_BOND_UDEF_STEREO_COUNT>
0

> <PUBCHEM_ISOTOPIC_ATOM_COUNT>
0

> <PUBCHEM_COMPONENT_COUNT>
1

> <PUBCHEM_CACTVS_TAUTO_COUNT>
1

> <PUBCHEM_COORDINATE_TYPE>
1
5
255

> <PUBCHEM_BONDANNOTATIONS>
41  1  5
43  1  5
52  10  5
54  11  6
55  12  6
56  13  6
58  14  5
16  28  5
17  61  6
18  62  6
19  63  6
20  64  5
22  32  6
23  68  6
25  71  6
27  38  5
44  3  6
49  3  6
34  42  6
45  4  5
46  48  5
47  5  6
51  5  5
53  59  5
57  60  6
50  9  5

$$$$
443440
  SciTegic09112316443D

 34 36  0  0  1  0            999 V2000
   -1.2163    2.5060   -0.5999 O   0  0
   -1.6720   -2.7680   -0.3429 O   0  0
   -2.4275    0.6316    0.0195 N   0  0
   -0.3590   -0.8862   -0.6053 N   0  0
   -2.4218   -0.6881    0.6352 C   0  0  1  0  0  0
   -3.8862   -1.1089    0.6107 C   0  0
   -3.7688    1.1781   -0.0836 C   0  0
   -4.6237    0.2226    0.7373 C   0  0
   -0.0241    0.4479   -0.1146 C   0  0  2  0  0  0
   -1.2661    1.3160   -0.2999 C   0  0
   -1.4948   -1.5638   -0.1812 C   0  0
    1.1814    1.0155   -0.8466 C   0  0
    2.4755    0.4595   -0.3119 C   0  0
    3.1208    1.1125    0.7285 C   0  0
    3.0029   -0.6970   -0.8679 C   0  0
    4.3192    0.5980    1.2233 C   0  0
    4.2012   -1.2117   -0.3731 C   0  0
    4.8594   -0.5640    0.6725 C   0  0
   -2.0398   -0.5948    1.6583 H   0  0
   -4.1337   -1.8037    1.4187 H   0  0
   -4.1481   -1.5905   -0.3396 H   0  0
   -4.0513    1.1647   -1.1416 H   0  0
   -3.8004    2.2091    0.2797 H   0  0
   -5.6578    0.1737    0.3857 H   0  0
   -4.6334    0.5386    1.7875 H   0  0
    0.1611    0.3719    0.9649 H   0  0
    0.3411   -1.4219   -1.1080 H   0  0
    1.2211    2.1084   -0.7495 H   0  0
    1.1112    0.8282   -1.9268 H   0  0
    2.7073    2.0168    1.1662 H   0  0
    2.5075   -1.2059   -1.6895 H   0  0
    4.8313    1.1019    2.0378 H   0  0
    4.6233   -2.1151   -0.8034 H   0  0
    5.7926   -0.9644    1.0575 H   0  0
  1 10  2  0
  2 11  2  0
  3  5  1  0
  3  7  1  0
  3 10  1  0
  4  9  1  0
  4 11  1  0
  4 27  1  0
  5  6  1  0
  5 11  1  0
  5 19  1  0
  6  8  1  0
  6 20  1  0
  6 21  1  0
  7  8  1  0
  7 22  1  0
  7 23  1  0
  8 24  1  0
  8 25  1  0
  9 10  1  0
  9 12  1  0
  9 26  1  0
 12 13  1  0
 12 28  1  0
 12 29  1  0
 13 14  2  0
 13 15  1  0
 14 16  1  0
 14 30  1  0
 15 17  2  0
 15 31  1  0
 16 18  2  0
 16 32  1  0
 17 18  1  0
 17 33  1  0
 18 34  1  0
M  END
> <Name>
443440

> <OBJECTID>
9223372294556155918

> <PUBCHEM_COMPOUND_CID>
443440

> <PUBCHEM_CONFORMER_RMSD>
0.6

> <PUBCHEM_CONFORMER_DIVERSEORDER>
1
4
5
3
6
2

> <PUBCHEM_MMFF94_PARTIAL_CHARGES>
22
1 -0.57
10 0.57
11 0.57
12 0.14
13 -0.14
14 -0.15
15 -0.15
16 -0.15
17 -0.15
18 -0.15
2 -0.57
27 0.37
3 -0.66
30 0.15
31 0.15
32 0.15
33 0.15
34 0.15
4 -0.73
5 0.36
7 0.3
9 0.36

> <PUBCHEM_EFFECTIVE_ROTOR_COUNT>
3

> <PUBCHEM_PHARMACOPHORE_FEATURES>
6
1 1 acceptor
1 2 acceptor
1 4 donor
5 3 5 6 7 8 rings
6 13 14 15 16 17 18 rings
6 3 4 5 9 10 11 rings

> <PUBCHEM_HEAVY_ATOM_COUNT>
18

> <PUBCHEM_ATOM_DEF_STEREO_COUNT>
2

> <PUBCHEM_ATOM_UDEF_STEREO_COUNT>
0

> <PUBCHEM_BOND_DEF_STEREO_COUNT>
0

> <PUBCHEM_BOND_UDEF_STEREO_COUNT>
0

> <PUBCHEM_ISOTOPIC_ATOM_COUNT>
0

> <PUBCHEM_COMPONENT_COUNT>
1

> <PUBCHEM_CACTVS_TAUTO_COUNT>
2

> <PUBCHEM_CONFORMER_ID>
0006C43000000001

> <PUBCHEM_MMFF94_ENERGY>
57.3506

> <PUBCHEM_FEATURE_SELFOVERLAP>
30.544

> <PUBCHEM_SHAPE_FINGERPRINT>
10366900 7 17489586779513186256
11132069 177 18413673513004700399
12119455 92 17418091001230161957
12236239 1 17095528370712585812
12251169 10 18341894117020690244
12346177 29 18340196483683527823
12507560 40 18343016675670005232
12633257 1 18272640277807567544
128620 24 10592042461980042594
13140716 1 18337956825615430299
13533116 47 17560527200675204830
13544592 145 18129674001915453830
13551218 46 18262516987882438986
13581323 91 18334295357817222780
13675066 3 18409169934604305123
13862211 1 18336548313452208547
14341114 176 18342457045968903688
14420673 8 18047471128452948058
14866123 147 16833205529337962338
15042514 8 18336271249254021147
15196674 1 18409732880262720015
15209294 21 17917163693271077897
15375358 24 18131069329251899398
15885798 251 18260269667692918541
16752209 62 18041264492233952445
17804303 29 18411706469628306604
1813 80 17240484714937192990
19049666 15 17984988094411384444
19141452 34 18343021120634128535
19784866 240 15864341416490236160
20279233 1 18202285805526652830
20361792 2 16805598192412608420
20510252 161 18272370811032480225
20645477 70 12901542413146681392
21033648 29 18200014171364792624
21065199 12 18343017813661934354
21637258 2 15791734161180454849
22182313 1 18192160300225925599
22646028 28 17821447971682909610
22854114 59 17918274251222156408
22959321 94 18260543433487942194
23366157 5 17680995402657853389
23402539 116 18342731919369701981
23559900 14 18343030986564138212
26918003 58 18131067121891845592
2748010 2 18120664530533056693
2838139 119 15338285507014385433
351380 180 17917709084860064153
42 15 18407761430439687058
4340502 62 15482678970384627855
465052 167 17677349297956910115
474 4 13901901237501593882
4990 188 10881395435419892416
5104073 3 18410578421873845768
5374978 207 18408042926928514752
58807428 26 18337401435284822963
5924683 9 17916295207575788695
69090 78 18272928319209239063
90316 7 18260267443047883765
9709674 26 18272373083354957974

> <PUBCHEM_SHAPE_MULTIPOLES>
348.73
9.69
1.98
0.97
3.41
0.34
-0.1
0.98
-2.96
-1.06
0.34
0.52
-0.06
0.57

> <PUBCHEM_SHAPE_SELFOVERLAP>
750.57

> <PUBCHEM_SHAPE_VOLUME>
191.5

> <PUBCHEM_COORDINATE_TYPE>
2
5
10

$$$$
480764
  SciTegic09112316443D

 45 47  0  0  1  0            999 V2000
    0.0036    0.0999   -0.4035 O   0  0
    1.6625    3.6971    0.6639 O   0  0
    4.0355    2.6279    0.5723 O   0  0
    4.2965   -1.9068   -0.7761 O   0  0
   -6.2623    0.2329   -0.4784 O   0  0
   -0.7258    1.0318    0.4104 C   0  0  1  0  0  0
   -0.3189    2.4699    0.0951 C   0  0
    1.3625    0.2366   -0.2839 C   0  0
    1.9867    1.4284    0.0962 C   0  0
    1.1592    2.6279    0.3401 C   0  0
    2.1355   -0.8836   -0.5924 C   0  0
   -2.2059    0.8186    0.1728 C   0  0
    1.4828   -2.1593   -1.0218 C   0  0
    3.3783    1.4938    0.2016 C   0  0
    3.5254   -0.8200   -0.4891 C   0  0
    4.1447    0.3644   -0.0883 C   0  0
   -3.0258    0.3971    1.2190 C   0  0
   -2.7476    1.0433   -1.0923 C   0  0
    1.1601   -3.0691    0.1361 C   0  0
   -4.3892    0.2000    0.9996 C   0  0
   -4.1110    0.8463   -1.3115 C   0  0
   -0.0425   -3.5531    0.5011 C   0  0
   -4.9318    0.4246   -0.2656 C   0  0
   -0.2937   -4.4600    1.6723 C   0  0
   -1.2786   -3.1884   -0.2776 C   0  0
   -0.4975    0.8046    1.4623 H   0  0
   -0.8620    3.1699    0.7399 H   0  0
   -0.4970    2.7405   -0.9517 H   0  0
    0.6320   -1.9413   -1.6715 H   0  0
    2.1576   -2.7126   -1.6892 H   0  0
    5.2288    0.4068   -0.0097 H   0  0
   -2.6178    0.2168    2.2099 H   0  0
   -2.1230    1.3600   -1.9229 H   0  0
    2.0196   -3.3744    0.7328 H   0  0
   -5.0236   -0.1290    1.8183 H   0  0
   -4.5210    1.0222   -2.3024 H   0  0
    4.9934    2.4602    0.5810 H   0  0
    5.2326   -1.6762   -0.6482 H   0  0
    0.6351   -4.7056    2.1976 H   0  0
   -0.9672   -3.9807    2.3901 H   0  0
   -0.7471   -5.3984    1.3376 H   0  0
   -1.1691   -2.3642   -0.9812 H   0  0
   -1.6355   -4.0611   -0.8349 H   0  0
   -2.0728   -2.8855    0.4148 H   0  0
   -6.4648    0.4345   -1.4082 H   0  0
  1  6  1  0
  1  8  1  0
  2 10  2  0
  3 14  1  0
  3 37  1  0
  4 15  1  0
  4 38  1  0
  5 23  1  0
  5 45  1  0
  6  7  1  0
  6 12  1  0
  6 26  1  0
  7 10  1  0
  7 27  1  0
  7 28  1  0
  8  9  1  0
  8 11  2  0
  9 10  1  0
  9 14  2  0
 11 13  1  0
 11 15  1  0
 12 17  2  0
 12 18  1  0
 13 19  1  0
 13 29  1  0
 13 30  1  0
 14 16  1  0
 15 16  2  0
 16 31  1  0
 17 20  1  0
 17 32  1  0
 18 21  2  0
 18 33  1  0
 19 22  2  0
 19 34  1  0
 20 23  2  0
 20 35  1  0
 21 23  1  0
 21 36  1  0
 22 24  1  0
 22 25  1  0
 24 39  1  0
 24 40  1  0
 24 41  1  0
 25 42  1  0
 25 43  1  0
 25 44  1  0
M  END
> <Name>
480764

> <OBJECTID>
9223372298851123214

> <PUBCHEM_COMPOUND_CID>
480764

> <PUBCHEM_CONFORMER_RMSD>
0.8

> <PUBCHEM_CONFORMER_DIVERSEORDER>
3
11
17
9
14
10
18
19
21
5
4
16
2
12
1
6
7
8
15
20
13

> <PUBCHEM_MMFF94_PARTIAL_CHARGES>
34
1 -0.36
10 0.42
11 -0.14
12 -0.14
13 0.28
14 0.08
15 0.08
16 -0.15
17 -0.15
18 -0.15
19 -0.29
2 -0.57
20 -0.15
21 -0.15
22 -0.28
23 0.08
24 0.14
25 0.14
3 -0.53
31 0.15
32 0.15
33 0.15
34 0.15
35 0.15
36 0.15
37 0.45
38 0.45
4 -0.53
45 0.45
5 -0.53
6 0.42
7 0.06
8 0.08
9 0.09

> <PUBCHEM_EFFECTIVE_ROTOR_COUNT>
3.6

> <PUBCHEM_PHARMACOPHORE_FEATURES>
9
1 1 acceptor
1 2 acceptor
1 3 donor
1 4 donor
1 5 donor
3 22 24 25 hydrophobe
6 1 6 7 8 9 10 rings
6 12 17 18 20 21 23 rings
6 8 9 11 14 15 16 rings

> <PUBCHEM_HEAVY_ATOM_COUNT>
25

> <PUBCHEM_ATOM_DEF_STEREO_COUNT>
1

> <PUBCHEM_ATOM_UDEF_STEREO_COUNT>
0

> <PUBCHEM_BOND_DEF_STEREO_COUNT>
0

> <PUBCHEM_BOND_UDEF_STEREO_COUNT>
0

> <PUBCHEM_ISOTOPIC_ATOM_COUNT>
0

> <PUBCHEM_COMPONENT_COUNT>
1

> <PUBCHEM_CACTVS_TAUTO_COUNT>
42

> <PUBCHEM_CONFORMER_ID>
000755FC00000003

> <PUBCHEM_MMFF94_ENERGY>
65.6266

> <PUBCHEM_FEATURE_SELFOVERLAP>
45.701

> <PUBCHEM_SHAPE_FINGERPRINT>
10316853 100 18263370334029220299
10967382 1 18413111649899609540
1100329 8 18410570687181531602
11370993 70 18410009979031837467
114674 6 18336831900856366827
12156800 1 17767084929771860427
12236239 1 17418094326163012005
12422481 6 17975446764740377507
12553582 1 17402619545582984483
13140716 1 18269551805522079648
13402501 40 18334584555266723907
13540713 4 17983587579102455076
13911987 19 18189919585369513996
14844126 61 16027607575449464875
16728300 4 17318136495668255914
17134984 74 18265593516929623463
17138139 8 17556549344348365767
19591789 44 18339366253794219686
19930381 70 18266178340496913227
20028762 73 18201997681772718334
20511986 3 17703497806348553233
20567600 347 17894630314624509171
20645477 70 18410569578689553069
21033648 29 18336249224124157125
21197605 99 18126010609898479591
21304304 249 18337382756857128978
21421861 104 17686913717114229856
22182313 1 17842295932528451004
23557571 272 17168708514493435701
23558518 356 17684643616719215496
23559900 14 18342737455050023712
283562 15 18123758556659988272
2871803 45 18339925892021751524
3298306 158 18261104124425956103
33824 294 18410573963898258207
3383291 50 18264488374415710018
338550 245 18191589859765442695
350125 39 17547577440918987360
4340502 62 18412262865582946911
463206 1 18411418389166325311
57527295 17 17975955598010591973
70251023 43 17840314311310679607
9777508 108 18122341551763483730

> <PUBCHEM_SHAPE_MULTIPOLES>
485.14
8.89
4.71
1.1
8.61
4.32
0.08
-3.07
-1.39
-2.81
1.75
0.58
0.41
1.11

> <PUBCHEM_SHAPE_SELFOVERLAP>
1054.72

> <PUBCHEM_SHAPE_VOLUME>
264.1

> <PUBCHEM_COORDINATE_TYPE>
2
5
10

$$$$
550598
  SciTegic09112316443D

 49 49  0  0  1  0            999 V2000
   -0.2619   -0.1260    1.7404 O   0  0
   -0.7788    1.8368   -2.5567 O   0  0
    0.1901   -0.7368   -2.9345 O   0  0
    2.3687   -1.2338   -0.7973 O   0  0
   -0.7431    1.3603   -0.1381 C   0  0
    0.0284   -1.0190   -0.5022 C   0  0  1  0  0  0
   -0.3144    0.0477    0.5291 C   0  0
   -2.2056    1.6541    0.1704 C   0  0
    0.1799    2.4920    0.2946 C   0  0
   -0.5709    1.0900   -1.6223 C   0  0
   -0.0727   -0.3101   -1.8288 C   0  0
    1.3462   -1.6757   -0.2730 C   0  0
    1.3512   -2.9243    0.6041 C   0  0
   -3.0227    0.4322   -0.1290 C   0  0
    1.5913    2.1374   -0.0701 C   0  0
   -3.7509   -0.3028    0.7330 C   0  0
    2.6556    2.0471    0.7501 C   0  0
    1.1291   -4.1637   -0.2544 C   0  0
    2.6547   -3.0349    1.3909 C   0  0
   -4.4805   -1.5322    0.2613 C   0  0
   -3.9279    0.0036    2.1931 C   0  0
    4.0176    1.7174    0.2000 C   0  0
    2.6165    2.2407    2.2394 C   0  0
   -0.7738   -1.7652   -0.4918 H   0  0
   -2.5747    2.4772   -0.4542 H   0  0
   -2.3099    1.9834    1.2069 H   0  0
    0.0555    2.6961    1.3607 H   0  0
   -0.0829    3.4181   -0.2323 H   0  0
    0.5322   -2.8338    1.3277 H   0  0
   -3.0230    0.1179   -1.1721 H   0  0
    1.7834    2.0061   -1.1342 H   0  0
    1.9254   -4.2792   -0.9981 H   0  0
    1.1030   -5.0678    0.3625 H   0  0
    0.1810   -4.0984   -0.7987 H   0  0
    2.8265   -2.1299    1.9839 H   0  0
    3.5160   -3.1620    0.7257 H   0  0
    2.6252   -3.8893    2.0750 H   0  0
   -4.1305   -2.4130    0.8097 H   0  0
   -4.3283   -1.7252   -0.8059 H   0  0
   -5.5569   -1.4225    0.4291 H   0  0
   -3.4088    0.9018    2.5297 H   0  0
   -4.9908    0.1404    2.4199 H   0  0
   -3.5544   -0.8308    2.7963 H   0  0
    4.7228    2.5236    0.4270 H   0  0
    4.0086    1.5801   -0.8864 H   0  0
    4.3922    0.7907    0.6473 H   0  0
    1.6174    2.4121    2.6423 H   0  0
    3.0129    1.3510    2.7410 H   0  0
    3.2373    3.0975    2.5215 H   0  0
  1  7  2  0
  2 10  2  0
  3 11  2  0
  4 12  2  0
  5  7  1  0
  5  8  1  0
  5  9  1  0
  5 10  1  0
  6  7  1  0
  6 11  1  0
  6 12  1  0
  6 24  1  0
  8 14  1  0
  8 25  1  0
  8 26  1  0
  9 15  1  0
  9 27  1  0
  9 28  1  0
 10 11  1  0
 12 13  1  0
 13 18  1  0
 13 19  1  0
 13 29  1  0
 14 16  2  0
 14 30  1  0
 15 17  2  0
 15 31  1  0
 16 20  1  0
 16 21  1  0
 17 22  1  0
 17 23  1  0
 18 32  1  0
 18 33  1  0
 18 34  1  0
 19 35  1  0
 19 36  1  0
 19 37  1  0
 20 38  1  0
 20 39  1  0
 20 40  1  0
 21 41  1  0
 21 42  1  0
 21 43  1  0
 22 44  1  0
 22 45  1  0
 22 46  1  0
 23 47  1  0
 23 48  1  0
 23 49  1  0
M  END
> <Name>
550598

> <OBJECTID>
9223372303146090510

> <PUBCHEM_COMPOUND_CID>
550598

> <PUBCHEM_CONFORMER_RMSD>
0.8

> <PUBCHEM_CONFORMER_DIVERSEORDER>
1
89
102
112
85
122
144
165
82
173
80
167
59
150
40
128
174
119
106
15
169
45
13
86
141
182
44
159
76
181
145
164
136
151
29
133
63
39
134
131
123
154
146
168
183
148
152
69
61
2
16
163
52
142
153
137
149
143
157
56
55
155
8
68
87
147
73
135
7
166
132
54
140
9
94
20
43
104
42
100
51
156
33
79
113
118
129
41
125
179
35
88
18
58
57
95
170
93
171
48
138
139
74
21
111
162
108
23
177
6
46
101
176
62
75
71
178
38
67
103
105
96
161
110
114
11
50
126
36
109
175
34
172
127
77
25
91
53
120
130
65
99
37
3
92
107
98
158
180
97
78
115
70
124
90
24
49
84
83
47
117
14
32
66
60
28
30
4
160
10
26
19
116
31
5
17
72
121
12
64
81
22
27

> <PUBCHEM_MMFF94_PARTIAL_CHARGES>
23
1 -0.57
10 0.51
11 0.51
12 0.45
13 0.06
14 -0.29
15 -0.29
16 -0.28
17 -0.28
2 -0.57
20 0.14
21 0.14
22 0.14
23 0.14
3 -0.57
30 0.15
31 0.15
4 -0.57
5 0.12
6 0.18
7 0.45
8 0.14
9 0.14

> <PUBCHEM_EFFECTIVE_ROTOR_COUNT>
6.4

> <PUBCHEM_PHARMACOPHORE_FEATURES>
9
1 1 acceptor
1 2 acceptor
1 3 acceptor
1 4 acceptor
1 6 anion
3 13 18 19 hydrophobe
3 16 20 21 hydrophobe
3 17 22 23 hydrophobe
5 5 6 7 10 11 rings

> <PUBCHEM_HEAVY_ATOM_COUNT>
23

> <PUBCHEM_ATOM_DEF_STEREO_COUNT>
0

> <PUBCHEM_ATOM_UDEF_STEREO_COUNT>
1

> <PUBCHEM_BOND_DEF_STEREO_COUNT>
0

> <PUBCHEM_BOND_UDEF_STEREO_COUNT>
0

> <PUBCHEM_ISOTOPIC_ATOM_COUNT>
0

> <PUBCHEM_COMPONENT_COUNT>
1

> <PUBCHEM_CACTVS_TAUTO_COUNT>
7

> <PUBCHEM_CONFORMER_ID>
000866C600000001

> <PUBCHEM_MMFF94_ENERGY>
38.1034

> <PUBCHEM_FEATURE_SELFOVERLAP>
45.677

> <PUBCHEM_SHAPE_FINGERPRINT>
10948715 1 16701187532762010213
11578080 2 17969505896645123885
12592029 89 18341332291958499200
12633257 1 18054794975172682553
12788726 201 16682305224351343306
13149001 5 17539666033401529061
14178342 30 18122650480951697211
14787075 74 18265920028321138750
14863182 85 18190474946385053427
16945 1 18338516468761090461
19591789 44 18411417353931312402
20600515 1 17332254095413407452
20905425 154 18271535178100836876
21330990 113 18187924048942545134
21421861 104 18197804136213494409
21452121 71 18191038815123891903
23419403 2 17897142668191102822
23557571 272 17313373488263327341
23559900 14 18188485753176147901
3797600 57 17489593402147002571
394222 165 17846502560098129233
465052 167 17604707927337060729
5845 1 10340325110524951061

> <PUBCHEM_SHAPE_MULTIPOLES>
449.85
5.8
4
2.13
4.34
3.73
-0.75
-0.51
3.33
-3.84
0.71
0.21
-0.43
0.53

> <PUBCHEM_SHAPE_SELFOVERLAP>
919.075

> <PUBCHEM_SHAPE_VOLUME>
262.4

> <PUBCHEM_COORDINATE_TYPE>
2
5
10

$$$$
644020
  SciTegic09112316443D

 43 46  0  0  1  0            999 V2000
   -1.5034    0.5000    0.6146 N   0  0  1  0  0  0
    1.1032   -0.7028    0.2352 N   0  0  1  0  0  0
   -0.3389    0.2017   -1.6049 C   0  0  1  0  0  0
    0.6100    1.7571    0.0525 C   0  0  1  0  0  0
   -1.6851    0.1889   -0.8193 C   0  0  1  0  0  0
    1.5901    0.6547    0.5516 C   0  0  2  0  0  0
    0.3038    1.5810   -1.4368 C   0  0
   -0.7318    1.7358    0.8236 C   0  0
    0.6902   -0.8662   -1.1634 C   0  0
   -2.4259   -1.1502   -0.9854 C   0  0
    3.0256    0.8992    0.0386 C   0  0
   -2.7861    0.5663    1.3275 C   0  0
    2.0274   -1.7472    0.6859 C   0  0
   -3.7650   -1.1334   -0.2543 C   0  0
    3.9866   -0.1761    0.5371 C   0  0
   -3.5632   -0.7441    1.2046 C   0  0
    3.4626   -1.5647    0.1928 C   0  0
   -0.5577    0.0458   -2.6692 H   0  0
    1.0713    2.7407    0.2078 H   0  0
   -2.3198    0.9706   -1.2641 H   0  0
    1.6273    0.7379    1.6473 H   0  0
   -0.3765    2.3680   -1.7853 H   0  0
    1.2101    1.6648   -2.0457 H   0  0
   -0.5207    1.8563    1.8935 H   0  0
   -1.3260    2.6074    0.5165 H   0  0
    0.2590   -1.8629   -1.3085 H   0  0
    1.5569   -0.8121   -1.8343 H   0  0
   -1.8269   -1.9784   -0.5889 H   0  0
   -2.5957   -1.3558   -2.0487 H   0  0
    3.3782    1.8800    0.3796 H   0  0
    3.0576    0.9175   -1.0564 H   0  0
   -3.3995    1.3933    0.9463 H   0  0
   -2.6094    0.7577    2.3929 H   0  0
    1.6574   -2.7374    0.3933 H   0  0
    2.0294   -1.7509    1.7837 H   0  0
   -4.2397   -2.1187   -0.3178 H   0  0
   -4.4404   -0.4173   -0.7380 H   0  0
    4.1043   -0.0868    1.6240 H   0  0
    4.9774   -0.0285    0.0936 H   0  0
   -4.5362   -0.6449    1.6988 H   0  0
   -3.0202   -1.5433    1.7249 H   0  0
    3.5123   -1.7200   -0.8915 H   0  0
    4.1076   -2.3237    0.6501 H   0  0
  1  5  1  0
  1  8  1  0
  1 12  1  0
  2  6  1  0
  2  9  1  0
  2 13  1  0
  3  5  1  0
  3  7  1  0
  3  9  1  0
  3 18  1  0
  4  6  1  0
  4  7  1  0
  4  8  1  0
  4 19  1  0
  5 10  1  0
  5 20  1  0
  6 11  1  0
  6 21  1  0
  7 22  1  0
  7 23  1  0
  8 24  1  0
  8 25  1  0
  9 26  1  0
  9 27  1  0
 10 14  1  0
 10 28  1  0
 10 29  1  0
 11 15  1  0
 11 30  1  0
 11 31  1  0
 12 16  1  0
 12 32  1  0
 12 33  1  0
 13 17  1  0
 13 34  1  0
 13 35  1  0
 14 16  1  0
 14 36  1  0
 14 37  1  0
 15 17  1  0
 15 38  1  0
 15 39  1  0
 16 40  1  0
 16 41  1  0
 17 42  1  0
 17 43  1  0
M  END
> <Name>
644020

> <OBJECTID>
9223372307441057806

> <PUBCHEM_COMPOUND_CID>
644020

> <PUBCHEM_CONFORMER_RMSD>
0.6

> <PUBCHEM_CONFORMER_DIVERSEORDER>
1

> <PUBCHEM_MMFF94_PARTIAL_CHARGES>
8
1 -0.81
12 0.27
13 0.27
2 -0.81
5 0.27
6 0.27
8 0.27
9 0.27

> <PUBCHEM_EFFECTIVE_ROTOR_COUNT>
2.2

> <PUBCHEM_PHARMACOPHORE_FEATURES>
6
1 1 cation
1 2 cation
6 1 3 4 5 7 8 rings
6 1 5 10 12 14 16 rings
6 2 3 4 6 7 9 rings
6 2 6 11 13 15 17 rings

> <PUBCHEM_HEAVY_ATOM_COUNT>
17

> <PUBCHEM_ATOM_DEF_STEREO_COUNT>
4

> <PUBCHEM_ATOM_UDEF_STEREO_COUNT>
0

> <PUBCHEM_BOND_DEF_STEREO_COUNT>
0

> <PUBCHEM_BOND_UDEF_STEREO_COUNT>
0

> <PUBCHEM_ISOTOPIC_ATOM_COUNT>
0

> <PUBCHEM_COMPONENT_COUNT>
1

> <PUBCHEM_CACTVS_TAUTO_COUNT>
1

> <PUBCHEM_CONFORMER_ID>
0009D3B400000001

> <PUBCHEM_MMFF94_ENERGY>
17.8366

> <PUBCHEM_FEATURE_SELFOVERLAP>
32.171

> <PUBCHEM_SHAPE_FINGERPRINT>
10465860 71 14996003250398592663
10863032 1 18336539400582484625
10922049 32 11743835884915918405
10948715 1 10664101159851004259
11086676 242 18273216378586949322
11132069 177 18059850649701056098
11471102 22 18335700563457376954
11578080 2 17985233444255469713
11769659 78 18408600353237196450
12251169 10 17917713500144297755
12382932 28 17703799080728300873
12423570 1 15890325993831608205
13296908 3 17967527952308714574
13299463 15 12901849193410998253
13571099 52 12247681590585736356
13581323 91 16845575343907662949
13764800 53 15482397486517555227
14178342 30 17060076856111425175
14787075 74 16906352171898512469
14817 1 14907035249093061973
14943859 89 11600006552488132247
15309172 13 17703781505653800790
15375462 189 18341614849314265627
15375462 478 18060700597932743937
15775835 57 8718829799137870315
16945 1 18262796396932017476
17834072 14 17530681026252992039
17844478 74 18187920651855548588
1813 80 18262250940770543070
18186145 218 10231757811953116544
19422 9 18202283606619441674
19862831 5 12685090384484557251
200 152 18337659871618984167
20361792 2 17967537860956431175
20671657 53 15936412238568564606
21524375 3 10663810884454610085
22112679 90 17489019500021824973
22445834 79 18343864437325294771
231179 274 11959742533676244475
232386 152 18202009862515292151
23382010 3 11458434560556053069
23388829 49 18341895220505661885
23402539 116 13262387856842260678
23463225 33 18273496783937474548
23557571 272 16370994196662314796
23559900 14 13984657071404592540
23566358 27 18342750585403318742
2748010 2 18195789796614947372
276578 36 15554453959437006942
296302 2 17386006199564515277
298252 57 10881398737923065509
305870 269 12535631548417637972
77492 1 18131351963664116549
81228 2 17024018259813050093
83771 10 18334856112651959138
90316 7 17989211421410664697

> <PUBCHEM_SHAPE_MULTIPOLES>
339.89
6.13
1.83
1.4
0.13
0.13
-0.26
-2.73
1.87
0.51
0.05
-0.7
0.13
-0.42

> <PUBCHEM_SHAPE_SELFOVERLAP>
715.769

> <PUBCHEM_SHAPE_VOLUME>
183.3

> <PUBCHEM_COORDINATE_TYPE>
2
5
10

$$$$
676946
  SciTegic09112316443D

 26 26  0  0  0  0            999 V2000
   -3.4458    0.5181   -0.0907 O   0  0
    5.2260    0.7943   -0.1089 O   0  0
   -2.8710   -1.6933    0.2503 O   0  0
    1.2500   -0.3843    0.0657 C   0  0
    1.5924    0.9499    0.2849 C   0  0
    2.2440   -1.3228   -0.2123 C   0  0
   -0.1430   -0.7982    0.1271 C   0  0
    2.9285    1.3458    0.2260 C   0  0
    3.5802   -0.9269   -0.2712 C   0  0
    3.9225    0.4074   -0.0519 C   0  0
   -4.8350    0.1753   -0.0501 C   0  0
   -1.2077    0.0252    0.0045 C   0  0
   -2.5825   -0.5202    0.0744 C   0  0
   -5.6586    1.4299   -0.2478 C   0  0
    0.8555    1.7110    0.5241 H   0  0
    1.9964   -2.3671   -0.3872 H   0  0
   -0.3079   -1.8638    0.2727 H   0  0
    3.1831    2.3874    0.4029 H   0  0
    4.3501   -1.6624   -0.4884 H   0  0
   -5.0571   -0.5430   -0.8472 H   0  0
   -5.0719   -0.2742    0.9207 H   0  0
   -1.1103    1.0911   -0.1678 H   0  0
   -6.7282    1.2037   -0.2223 H   0  0
   -5.4340    2.1652    0.5319 H   0  0
   -5.4194    1.9007   -1.2070 H   0  0
    5.2793    1.7494    0.0668 H   0  0
  1 11  1  0
  1 13  1  0
  2 10  1  0
  2 26  1  0
  3 13  2  0
  4  5  2  0
  4  6  1  0
  4  7  1  0
  5  8  1  0
  5 15  1  0
  6  9  2  0
  6 16  1  0
  7 12  2  0
  7 17  1  0
  8 10  2  0
  8 18  1  0
  9 10  1  0
  9 19  1  0
 11 14  1  0
 11 20  1  0
 11 21  1  0
 12 13  1  0
 12 22  1  0
 14 23  1  0
 14 24  1  0
 14 25  1  0
M  END
> <Name>
676946

> <OBJECTID>
9223372311736025102

> <PUBCHEM_COMPOUND_CID>
676946

> <PUBCHEM_CONFORMER_RMSD>
0.6

> <PUBCHEM_CONFORMER_DIVERSEORDER>
1
9
12
3
14
5
2
4
13
6
11
8
10
7

> <PUBCHEM_MMFF94_PARTIAL_CHARGES>
20
1 -0.43
10 0.08
11 0.28
12 -0.14
13 0.71
15 0.15
16 0.15
17 0.15
18 0.15
19 0.15
2 -0.53
22 0.15
26 0.45
3 -0.57
4 0.03
5 -0.15
6 -0.15
7 -0.18
8 -0.15
9 -0.15

> <PUBCHEM_EFFECTIVE_ROTOR_COUNT>
4

> <PUBCHEM_PHARMACOPHORE_FEATURES>
3
1 2 donor
1 3 acceptor
6 4 5 6 8 9 10 rings

> <PUBCHEM_HEAVY_ATOM_COUNT>
14

> <PUBCHEM_ATOM_DEF_STEREO_COUNT>
0

> <PUBCHEM_ATOM_UDEF_STEREO_COUNT>
0

> <PUBCHEM_BOND_DEF_STEREO_COUNT>
1

> <PUBCHEM_BOND_UDEF_STEREO_COUNT>
0

> <PUBCHEM_ISOTOPIC_ATOM_COUNT>
0

> <PUBCHEM_COMPONENT_COUNT>
1

> <PUBCHEM_CACTVS_TAUTO_COUNT>
2

> <PUBCHEM_CONFORMER_ID>
000A545200000001

> <PUBCHEM_MMFF94_ENERGY>
30.7178

> <PUBCHEM_FEATURE_SELFOVERLAP>
15.223

> <PUBCHEM_SHAPE_FINGERPRINT>
10014705 185 18407758145132551487
100836 57 18260553324623772453
11401426 45 18202561804499182360
11471102 20 18343021082089906790
12500047 106 18411697725001383027
14252887 29 12613025072780788680
15048467 5 18260831514151046348
15242439 84 18342178864482892614
15501527 16 18408888421716862593
17834072 33 18202559605634292935
17834072 8 18272939301883486388
18186145 218 18113611291957712583
200 152 17632576058960265923
20279233 1 18408611369865526275
20645477 56 18333449846450203973
20645477 70 18202004274594652518
21119208 17 17704072901735660253
212847 35 18335138683151402280
22289505 5 18342736278250239484
23402539 116 18341325673498096942
23402655 69 18344144795489104782
23559900 14 18413388713860926898
29717793 49 16988568961562070356
300161 21 18342450448018012779
3060560 45 17775290460954226070
3545911 37 18411984671829329569
4047638 21 18260550013425370834
4072396 5 18341320129497268682
4214541 1 18410856577399978931
42788 4 18410011022787875149
5104073 3 18408039636619433602
522135 26 18341331115406381046
542803 24 17240204339213614365
633830 44 18040714809381897254
77779 3 18410857685264313875
8272917 22 18130510717184214623

> <PUBCHEM_SHAPE_MULTIPOLES>
270.51
11.5
1.45
0.63
9.22
0.06
0
-4.14
-1.01
0.03
0.02
-0.01
0
0.4

> <PUBCHEM_SHAPE_SELFOVERLAP>
554.367

> <PUBCHEM_SHAPE_VOLUME>
156.6

> <PUBCHEM_COORDINATE_TYPE>
2
5
10

$$$$
689043
  SciTegic09112316443D

 21 21  0  0  0  0            999 V2000
    3.3190   -1.7785    0.1936 O   0  0
    4.0965    0.8849    0.0508 O   0  0
   -4.5229    0.9658    0.3589 O   0  0
   -4.0902   -1.1869   -0.2597 O   0  0
    0.0725   -0.1250   -0.1066 C   0  0
    1.0350   -1.1270    0.0177 C   0  0
    0.4630    1.2122   -0.1779 C   0  0
    2.3879   -0.7918    0.0705 C   0  0
    2.7784    0.5453   -0.0005 C   0  0
    1.8160    1.5473   -0.1248 C   0  0
   -1.3380   -0.4746   -0.1627 C   0  0
   -2.3077    0.3952    0.1047 C   0  0
   -3.7095   -0.0669    0.0361 C   0  0
    0.7426   -2.1734    0.0756 H   0  0
   -0.2423    2.0284   -0.3015 H   0  0
    2.1076    2.5925   -0.1870 H   0  0
   -1.5669   -1.5038   -0.4270 H   0  0
   -2.1467    1.4238    0.4033 H   0  0
    4.2003   -1.3667    0.2149 H   0  0
    4.1772    1.8522   -0.0117 H   0  0
   -5.4698    0.7109    0.3286 H   0  0
  1  8  1  0
  1 19  1  0
  2  9  1  0
  2 20  1  0
  3 13  1  0
  3 21  1  0
  4 13  2  0
  5  6  2  0
  5  7  1  0
  5 11  1  0
  6  8  1  0
  6 14  1  0
  7 10  2  0
  7 15  1  0
  8  9  2  0
  9 10  1  0
 10 16  1  0
 11 12  2  0
 11 17  1  0
 12 13  1  0
 12 18  1  0
M  END
> <Name>
689043

> <OBJECTID>
9223372316030992398

> <PUBCHEM_COMPOUND_CID>
689043

> <PUBCHEM_CONFORMER_RMSD>
0.6

> <PUBCHEM_CONFORMER_DIVERSEORDER>
1
2

> <PUBCHEM_MMFF94_PARTIAL_CHARGES>
21
1 -0.53
10 -0.15
11 -0.18
12 -0.14
13 0.71
14 0.15
15 0.15
16 0.15
17 0.15
18 0.15
19 0.45
2 -0.53
20 0.45
21 0.5
3 -0.65
4 -0.57
5 0.03
6 -0.15
7 -0.15
8 0.08
9 0.08

> <PUBCHEM_EFFECTIVE_ROTOR_COUNT>
2

> <PUBCHEM_PHARMACOPHORE_FEATURES>
6
1 1 donor
1 2 donor
1 3 acceptor
1 4 acceptor
3 3 4 13 anion
6 5 6 7 8 9 10 rings

> <PUBCHEM_HEAVY_ATOM_COUNT>
13

> <PUBCHEM_ATOM_DEF_STEREO_COUNT>
0

> <PUBCHEM_ATOM_UDEF_STEREO_COUNT>
0

> <PUBCHEM_BOND_DEF_STEREO_COUNT>
1

> <PUBCHEM_BOND_UDEF_STEREO_COUNT>
0

> <PUBCHEM_ISOTOPIC_ATOM_COUNT>
0

> <PUBCHEM_COMPONENT_COUNT>
1

> <PUBCHEM_CACTVS_TAUTO_COUNT>
10

> <PUBCHEM_CONFORMER_ID>
000A839300000001

> <PUBCHEM_MMFF94_ENERGY>
32.6032

> <PUBCHEM_FEATURE_SELFOVERLAP>
30.506

> <PUBCHEM_SHAPE_FINGERPRINT>
10219947 1 18412265021176552998
10980938 120 18410011044025373774
11062470 55 18272089404869723785
11471102 20 18408881823882016612
12032990 46 18337392638943783110
12346645 6 18342740710956779662
12932764 1 17346587599786472741
13380535 76 18335702796809125162
14144814 61 18413108359780516017
14251717 144 18408600379001959303
14325111 11 18411419527205616253
14576447 43 18199175373047286799
15219456 202 18187636964628010213
15442244 35 18267587905397049569
15501101 241 18260266343403952092
15536298 74 18342739607007733550
18186145 218 17967811626635825739
200 152 18272642477099887159
20279233 1 17095241436537016995
20645477 70 18410571747737792927
20871998 22 18126004858715295510
21501925 9 18337099090987966450
22485316 2 18409164407287330639
23402539 116 17274819164432577013
23402655 69 18412259528330223461
2748010 2 18192697961406879940
449060 62 18411420635455053572
4990 188 18060151950489470156
5104073 3 18411419505725655379
581208 293 18334855047668835764
77779 3 18410857663947525075

> <PUBCHEM_SHAPE_MULTIPOLES>
244.06
7.78
1.51
0.61
5.93
0.1
-0.01
0.08
0.47
-0.89
0
0.04
-0.01
-0.29

> <PUBCHEM_SHAPE_SELFOVERLAP>
514.004

> <PUBCHEM_SHAPE_VOLUME>
137.2

> <PUBCHEM_COORDINATE_TYPE>
2
5
10

$$$$
736681
  SciTegic09112316443D

 30 30  0  0  0  0            999 V2000
   -3.0860    1.8967   -0.5522 O   0  0
    3.8109    0.5895    0.0696 O   0  0
   -4.8360   -0.1686    0.0782 O   0  0
    3.5023   -1.6865   -0.1790 O   0  0
   -0.7451   -0.8658   -0.0507 C   0  0
   -1.2403    0.4091   -0.3248 C   0  0
   -2.6141    0.6477   -0.2820 C   0  0
   -1.6235   -1.9021    0.2661 C   0  0
   -3.4923   -0.3888    0.0348 C   0  0
   -2.9971   -1.6636    0.3089 C   0  0
    0.6872   -1.1148   -0.0943 C   0  0
    1.6470   -0.1673   -0.0059 C   0  0
    5.2311    0.4113    0.0439 C   0  0
    3.0767   -0.5493   -0.0523 C   0  0
    5.9002    1.7614    0.1892 C   0  0
   -3.2209    2.7912    0.5505 C   0  0
   -0.5901    1.2365   -0.5955 H   0  0
   -1.2559   -2.9020    0.4842 H   0  0
   -3.6702   -2.4798    0.5572 H   0  0
    0.9772   -2.1586   -0.1955 H   0  0
    1.4243    0.8859    0.1225 H   0  0
    5.5320   -0.2422    0.8705 H   0  0
    5.5243   -0.0470   -0.9072 H   0  0
    6.9891    1.6620    0.1736 H   0  0
    5.5946    2.4321   -0.6206 H   0  0
    5.6021    2.2401    1.1278 H   0  0
   -2.2473    2.9753    1.0158 H   0  0
   -3.9209    2.3894    1.2898 H   0  0
   -3.6144    3.7401    0.1759 H   0  0
   -5.2855   -0.9983    0.3141 H   0  0
  1  7  1  0
  1 16  1  0
  2 13  1  0
  2 14  1  0
  3  9  1  0
  3 30  1  0
  4 14  2  0
  5  6  2  0
  5  8  1  0
  5 11  1  0
  6  7  1  0
  6 17  1  0
  7  9  2  0
  8 10  2  0
  8 18  1  0
  9 10  1  0
 10 19  1  0
 11 12  2  0
 11 20  1  0
 12 14  1  0
 12 21  1  0
 13 15  1  0
 13 22  1  0
 13 23  1  0
 15 24  1  0
 15 25  1  0
 15 26  1  0
 16 27  1  0
 16 28  1  0
 16 29  1  0
M  END
> <Name>
736681

> <OBJECTID>
9223372320325959694

> <PUBCHEM_COMPOUND_CID>
736681

> <PUBCHEM_CONFORMER_RMSD>
0.6

> <PUBCHEM_CONFORMER_DIVERSEORDER>
1
4
47
21
3
29
24
34
19
2
27
31
12
22
15
42
32
43
14
16
20
18
44
30
46
13
25
8
28
35
37
39
36
45
38
9
6
7
33
5
17
23
49
48
11
26
41
10
40

> <PUBCHEM_MMFF94_PARTIAL_CHARGES>
21
1 -0.36
10 -0.15
11 -0.18
12 -0.14
13 0.28
14 0.71
16 0.28
17 0.15
18 0.15
19 0.15
2 -0.43
20 0.15
21 0.15
3 -0.53
30 0.45
4 -0.57
5 0.03
6 -0.15
7 0.08
8 -0.15
9 0.08

> <PUBCHEM_EFFECTIVE_ROTOR_COUNT>
5

> <PUBCHEM_PHARMACOPHORE_FEATURES>
4
1 1 acceptor
1 3 donor
1 4 acceptor
6 5 6 7 8 9 10 rings

> <PUBCHEM_HEAVY_ATOM_COUNT>
16

> <PUBCHEM_ATOM_DEF_STEREO_COUNT>
0

> <PUBCHEM_ATOM_UDEF_STEREO_COUNT>
0

> <PUBCHEM_BOND_DEF_STEREO_COUNT>
1

> <PUBCHEM_BOND_UDEF_STEREO_COUNT>
0

> <PUBCHEM_ISOTOPIC_ATOM_COUNT>
0

> <PUBCHEM_COMPONENT_COUNT>
1

> <PUBCHEM_CACTVS_TAUTO_COUNT>
3

> <PUBCHEM_CONFORMER_ID>
000B3DA900000001

> <PUBCHEM_MMFF94_ENERGY>
47.21

> <PUBCHEM_FEATURE_SELFOVERLAP>
20.297

> <PUBCHEM_SHAPE_FINGERPRINT>
10014705 185 18187359913525597653
10608611 8 18411980226264008046
11405975 8 18336546002501288754
12107183 9 17830727660959057034
12390115 104 18199765660573100393
12507560 40 18411703166941114662
12596602 18 17168140187035185864
12916748 109 18409173203127294730
13897977 58 18335703870555814599
14251764 75 17409659753117932993
15042514 8 18263088876232807627
15196674 1 18410855413152722308
17834072 32 18266179422633960549
17844677 252 18411990161172080204
18522853 276 18334576858157548845
20281389 69 18409444826462183616
20510252 161 18341052930617108601
20645477 56 18410575101858921818
20645477 70 17274833407045375542
21652331 79 18409729568848371924
23402539 116 18410004460310332615
23557571 272 18342468036394464868
23559900 14 18339354296389269256
245318 6 16737783790146825092
26918003 58 11891327656205324054
2916195 48 18128809928095440128
3545911 37 18410577297188505862
4214541 1 18409166584888445254
441001 317 18411135848921505168
449060 50 18409448107289274358
5104073 3 18261111820854214690
633830 44 18198056984832367174
77779 3 18409730647418075598
90127 26 18337685126464560682

> <PUBCHEM_SHAPE_MULTIPOLES>
305.8
11.4
2.3
0.66
14.95
1.18
0.01
4.96
0.62
-1.56
0.27
-0.14
0.07
0.25

> <PUBCHEM_SHAPE_SELFOVERLAP>
626.436

> <PUBCHEM_SHAPE_VOLUME>
177.3

> <PUBCHEM_COORDINATE_TYPE>
2
5
10

$$$$
736756
  SciTegic09112316443D

 28 30  0  0  1  0            999 V2000
   -0.1079   -2.6521   -0.2282 O   0  0
    0.1079    2.6520   -0.2282 O   0  0
    1.1211   -0.6928   -0.0124 N   0  0
   -1.1211    0.6929   -0.0124 N   0  0
    1.2114    0.6490    0.5580 C   0  0  1  0  0  0
   -1.2114   -0.6491    0.5579 C   0  0  1  0  0  0
    2.5814    1.1428    0.1080 C   0  0
   -2.5815   -1.1427    0.1079 C   0  0
    2.4068   -1.1680   -0.4905 C   0  0
   -2.4068    1.1680   -0.4905 C   0  0
   -0.0387   -1.4532    0.0265 C   0  0
    0.0388    1.4532    0.0265 C   0  0
    3.4014   -0.1442    0.0387 C   0  0
   -3.4014    0.1443    0.0388 C   0  0
    1.1432    0.5690    1.6490 H   0  0
   -1.1432   -0.5690    1.6491 H   0  0
    3.0081    1.8749    0.7999 H   0  0
    2.5331    1.6062   -0.8852 H   0  0
   -2.5332   -1.6061   -0.8853 H   0  0
   -3.0081   -1.8749    0.7997 H   0  0
    2.3732   -1.1692   -1.5851 H   0  0
    2.6033   -2.1851   -0.1398 H   0  0
   -2.3731    1.1690   -1.5852 H   0  0
   -2.6033    2.1851   -0.1399 H   0  0
    4.2885   -0.0522   -0.5937 H   0  0
    3.7272   -0.4266    1.0472 H   0  0
   -4.2886    0.0524   -0.5935 H   0  0
   -3.7271    0.4267    1.0474 H   0  0
  1 11  2  0
  2 12  2  0
  3  5  1  0
  3  9  1  0
  3 11  1  0
  4  6  1  0
  4 10  1  0
  4 12  1  0
  5  7  1  0
  5 12  1  0
  5 15  1  0
  6  8  1  0
  6 11  1  0
  6 16  1  0
  7 13  1  0
  7 17  1  0
  7 18  1  0
  8 14  1  0
  8 19  1  0
  8 20  1  0
  9 13  1  0
  9 21  1  0
  9 22  1  0
 10 14  1  0
 10 23  1  0
 10 24  1  0
 13 25  1  0
 13 26  1  0
 14 27  1  0
 14 28  1  0
M  END
> <Name>
736756

> <OBJECTID>
9223372324620926990

> <PUBCHEM_COMPOUND_CID>
736756

> <PUBCHEM_CONFORMER_RMSD>
0.4

> <PUBCHEM_CONFORMER_DIVERSEORDER>
1

> <PUBCHEM_MMFF94_PARTIAL_CHARGES>
10
1 -0.57
10 0.3
11 0.57
12 0.57
2 -0.57
3 -0.66
4 -0.66
5 0.36
6 0.36
9 0.3

> <PUBCHEM_EFFECTIVE_ROTOR_COUNT>
1.2

> <PUBCHEM_PHARMACOPHORE_FEATURES>
5
1 1 acceptor
1 2 acceptor
5 3 5 7 9 13 rings
5 4 6 8 10 14 rings
6 3 4 5 6 11 12 rings

> <PUBCHEM_HEAVY_ATOM_COUNT>
14

> <PUBCHEM_ATOM_DEF_STEREO_COUNT>
2

> <PUBCHEM_ATOM_UDEF_STEREO_COUNT>
0

> <PUBCHEM_BOND_DEF_STEREO_COUNT>
0

> <PUBCHEM_BOND_UDEF_STEREO_COUNT>
0

> <PUBCHEM_ISOTOPIC_ATOM_COUNT>
0

> <PUBCHEM_COMPONENT_COUNT>
1

> <PUBCHEM_CACTVS_TAUTO_COUNT>
1

> <PUBCHEM_CONFORMER_ID>
000B3DF400000001

> <PUBCHEM_MMFF94_ENERGY>
42.7133

> <PUBCHEM_FEATURE_SELFOVERLAP>
25.572

> <PUBCHEM_SHAPE_FINGERPRINT>
10219947 1 18411140242446000777
10608611 8 18410569595716415416
10967382 1 18410573967976921707
11132069 177 18411694387510756520
11206711 2 18122353380314199244
11471102 20 18411415077777935093
12032990 46 18410300206772206107
12423570 1 11973153431476444378
12524768 44 18413111684016780706
12897270 3 18338516313809399741
13140716 1 18338516343868883464
13897977 150 18338514136408784085
14251717 144 18412538838743546247
14325111 11 18411418422971837769
14614273 12 18044087956368539429
14993402 34 18410575131912994119
15219459 52 18263648535565306396
15775835 57 18409451388085171059
16945 1 18122624942242529331
17844478 74 18187094965867696617
193761 8 17762056944480157722
20201158 50 18411418380032740255
20511035 2 17841149166915934596
20588541 1 18411141303139483475
20645476 183 17604727662875361150
21501502 16 18050567648852318647
22802520 49 18127705819998049982
2334 1 18410855485897965618
23402539 116 18342444946523680910
23402655 69 18268695135978044085
23419403 2 15898893749212017187
23463225 33 18335417941792996074
23559900 14 18341895139887791870
25 1 18191296092534237005
2748010 2 18410855460128161855
353137 74 18192428576098501529
5084963 1 18129945692734903483
528886 8 18411976940645545339
53812653 166 18413105056665841977
63268167 104 18272091599508276563
7364860 26 18124597749587087912
8809292 202 18261399935528838419

> <PUBCHEM_SHAPE_MULTIPOLES>
266.41
4.68
2.23
0.68
0
0
0.02
0
-0.17
0
-0.23
0
0
0.32

> <PUBCHEM_SHAPE_SELFOVERLAP>
573.23

> <PUBCHEM_SHAPE_VOLUME>
148.3

> <PUBCHEM_COORDINATE_TYPE>
2
5
10

$$$$
927723
  SciTegic09112316443D

 26 26  0  0  1  0            999 V2000
   -1.2594   -2.6531   -0.2614 O   0  0
   -1.1799    2.6732   -0.3594 O   0  0
   -0.1644    0.6603   -0.8263 N   0  0
   -2.1891   -0.6322    0.3237 N   0  0
    0.1381   -0.6984   -0.4038 C   0  0  1  0  0  0
    1.0579   -0.7418    0.8071 C   0  0
    2.4256   -0.0774    0.5674 C   0  0
   -1.1661   -1.4320   -0.1483 C   0  0
    3.1759   -0.6987   -0.6116 C   0  0
    2.2414    1.4234    0.3303 C   0  0
   -1.9712    0.7208    0.7886 C   0  0
   -1.1087    1.4559   -0.2061 C   0  0
    0.5981   -1.1894   -1.2682 H   0  0
    0.5846   -0.2788    1.6811 H   0  0
    1.2244   -1.7906    1.0874 H   0  0
    3.0235   -0.2165    1.4768 H   0  0
    0.4004    1.0753   -1.5598 H   0  0
    2.6994   -0.4859   -1.5735 H   0  0
    3.2496   -1.7850   -0.4965 H   0  0
    4.1954   -0.3001   -0.6606 H   0  0
    2.0741    1.6934   -0.7141 H   0  0
    3.1786    1.9293    0.5973 H   0  0
    1.4724    1.8601    0.9746 H   0  0
   -1.4872    0.6961    1.7678 H   0  0
   -2.9461    1.2098    0.8642 H   0  0
   -3.0741   -1.0775    0.5460 H   0  0
  1  8  2  0
  2 12  2  0
  3  5  1  0
  3 12  1  0
  3 17  1  0
  4  8  1  0
  4 11  1  0
  4 26  1  0
  5  6  1  0
  5  8  1  0
  5 13  1  0
  6  7  1  0
  6 14  1  0
  6 15  1  0
  7  9  1  0
  7 10  1  0
  7 16  1  0
  9 18  1  0
  9 19  1  0
  9 20  1  0
 10 21  1  0
 10 22  1  0
 10 23  1  0
 11 12  1  0
 11 24  1  0
 11 25  1  0
M  END
> <Name>
927723

> <OBJECTID>
9223372328915894286

> <PUBCHEM_COMPOUND_CID>
927723

> <PUBCHEM_CONFORMER_RMSD>
0.6

> <PUBCHEM_CONFORMER_DIVERSEORDER>
1
2
3

> <PUBCHEM_MMFF94_PARTIAL_CHARGES>
10
1 -0.57
11 0.36
12 0.57
17 0.37
2 -0.57
26 0.37
3 -0.73
4 -0.73
5 0.36
8 0.57

> <PUBCHEM_EFFECTIVE_ROTOR_COUNT>
2.8

> <PUBCHEM_PHARMACOPHORE_FEATURES>
6
1 1 acceptor
1 2 acceptor
1 3 donor
1 4 donor
3 7 9 10 hydrophobe
6 3 4 5 8 11 12 rings

> <PUBCHEM_HEAVY_ATOM_COUNT>
12

> <PUBCHEM_ATOM_DEF_STEREO_COUNT>
1

> <PUBCHEM_ATOM_UDEF_STEREO_COUNT>
0

> <PUBCHEM_BOND_DEF_STEREO_COUNT>
0

> <PUBCHEM_BOND_UDEF_STEREO_COUNT>
0

> <PUBCHEM_ISOTOPIC_ATOM_COUNT>
0

> <PUBCHEM_COMPONENT_COUNT>
1

> <PUBCHEM_CACTVS_TAUTO_COUNT>
4

> <PUBCHEM_CONFORMER_ID>
000E27EB00000001

> <PUBCHEM_MMFF94_ENERGY>
39.3968

> <PUBCHEM_FEATURE_SELFOVERLAP>
30.454

> <PUBCHEM_SHAPE_FINGERPRINT>
100427 49 17980187913964256865
12524768 44 18268708479591878822
13024252 1 16225764107959018011
15775835 57 18262808345726148872
16945 1 18410006620124740882
18185500 45 18119527888717879475
19973954 147 18412823620776541840
20645464 45 18059278886691086402
20871998 184 18412271639942897103
21040471 1 18194109716745416800
21501502 16 18340771545897994854
23388829 49 17335897267130624599
23526114 1 16538193979118885615
23552423 10 18189052169505826190
23559900 14 18055916495057531862
241688 4 18265047118666583704
2748010 2 18195240242126477830
369184 2 11458416938458296178
5084963 1 17916575449600907856
54338 74 18265321979668003795
81228 2 18340476876391711779

> <PUBCHEM_SHAPE_MULTIPOLES>
225.25
3.72
2.32
0.86
2.47
0.14
0.05
0.02
0.19
-1.27
-0.32
0.11
0.03
0.15

> <PUBCHEM_SHAPE_SELFOVERLAP>
448.569

> <PUBCHEM_SHAPE_VOLUME>
132.4

> <PUBCHEM_COORDINATE_TYPE>
2
5
10

$$$$
3015189
  SciTegic09112316443D

 52 51  0  0  1  0            999 V2000
    5.1083    1.5730    0.4133 O   0  0
    7.9435    1.2077    0.6707 O   0  0
    9.0399   -1.4144    0.5560 O   0  0
    1.2509   -0.4812    0.0757 C   0  0
    2.4862    0.3296   -0.3231 C   0  0
   -0.0348    0.3047   -0.1939 C   0  0
    3.8073   -0.4113   -0.0811 C   0  0
   -1.3070   -0.4686    0.1657 C   0  0
    5.0753    0.3973   -0.3909 C   0  0  2  0  0  0
   -2.6260    0.2766   -0.0640 C   0  0
   -3.9000   -0.5159    0.2433 C   0  0
    6.3325   -0.4361   -0.0885 C   0  0
   -5.1849    0.2609   -0.0512 C   0  0
    7.6371    0.3149   -0.3993 C   0  0  2  0  0  0
   -6.4229   -0.6069    0.1862 C   0  0
   -7.7106    0.1761   -0.0767 C   0  0
    8.8261   -0.6222   -0.6055 C   0  0
   -8.9475   -0.6806    0.1932 C   0  0
  -10.1814    0.0866   -0.0260 C   0  0
  -11.1920    0.7099   -0.2041 C   0  0
    1.3072   -0.7408    1.1395 H   0  0
    1.2322   -1.4218   -0.4874 H   0  0
    2.4894    1.2701    0.2413 H   0  0
    2.4209    0.5985   -1.3847 H   0  0
   -0.0142    1.2409    0.3774 H   0  0
   -0.0764    0.5820   -1.2544 H   0  0
    3.8300   -0.7147    0.9741 H   0  0
    3.8107   -1.3323   -0.6772 H   0  0
   -1.3265   -1.3993   -0.4154 H   0  0
   -1.2547   -0.7650    1.2210 H   0  0
    5.0707    0.7091   -1.4410 H   0  0
   -2.6605    0.6024   -1.1114 H   0  0
   -2.6228    1.1904    0.5432 H   0  0
   -3.8893   -0.8177    1.2978 H   0  0
   -3.8915   -1.4387   -0.3499 H   0  0
    6.2869   -1.3527   -0.6892 H   0  0
    6.3302   -0.7239    0.9707 H   0  0
   -5.1753    0.6068   -1.0919 H   0  0
   -5.2259    1.1524    0.5861 H   0  0
    7.5204    0.9147   -1.3096 H   0  0
   -6.4204   -0.9716    1.2207 H   0  0
   -6.3877   -1.4869   -0.4674 H   0  0
   -7.7331    1.0695    0.5608 H   0  0
   -7.7220    0.5299   -1.1156 H   0  0
    8.6555   -1.2879   -1.4574 H   0  0
    9.7380   -0.0421   -0.7812 H   0  0
    5.0623    1.2994    1.3454 H   0  0
   -8.9269   -1.0487    1.2256 H   0  0
   -8.9405   -1.5596   -0.4618 H   0  0
    7.2118    1.8435    0.7413 H   0  0
    9.8038   -1.9876    0.3736 H   0  0
  -12.0882    1.2629   -0.3622 H   0  0
  1  9  1  0
  1 47  1  0
  2 14  1  0
  2 50  1  0
  3 17  1  0
  3 51  1  0
  4  5  1  0
  4  6  1  0
  4 21  1  0
  4 22  1  0
  5  7  1  0
  5 23  1  0
  5 24  1  0
  6  8  1  0
  6 25  1  0
  6 26  1  0
  7  9  1  0
  7 27  1  0
  7 28  1  0
  8 10  1  0
  8 29  1  0
  8 30  1  0
  9 12  1  0
  9 31  1  0
 10 11  1  0
 10 32  1  0
 10 33  1  0
 11 13  1  0
 11 34  1  0
 11 35  1  0
 12 14  1  0
 12 36  1  0
 12 37  1  0
 13 15  1  0
 13 38  1  0
 13 39  1  0
 14 17  1  0
 14 40  1  0
 15 16  1  0
 15 41  1  0
 15 42  1  0
 16 18  1  0
 16 43  1  0
 16 44  1  0
 17 45  1  0
 17 46  1  0
 18 19  1  0
 18 48  1  0
 18 49  1  0
 19 20  3  0
 20 52  1  0
M  END
> <Name>
3015189

> <OBJECTID>
9223372333210861582

> <PUBCHEM_COMPOUND_CID>
3015189

> <PUBCHEM_CONFORMER_RMSD>
1.4

> <PUBCHEM_CONFORMER_DIVERSEORDER>
1
87
20
52
14
57
68
16
17
102
60
18
4
93
41
9
11
54
6
88
70
39
99
26
86
56
96
46
104
40
31
103
5
84
83
77
30
74
43
101
78
27
97
76
15
51
72
79
91
44
29
92
53
47
49
35
10
90
42
85
7
67
12
94
28
45
48
66
71
98
59
80
64
105
73
69
81
34
2
61
63
32
24
19
55
82
100
22
21
3
23
95
75
25
89
8
50
65
36
33
13
37
58
62
38

> <PUBCHEM_MMFF94_PARTIAL_CHARGES>
13
1 -0.68
14 0.28
17 0.28
18 0.2
19 -0.2
2 -0.68
20 -0.18
3 -0.68
47 0.4
50 0.4
51 0.4
52 0.18
9 0.28

> <PUBCHEM_EFFECTIVE_ROTOR_COUNT>
14

> <PUBCHEM_PHARMACOPHORE_FEATURES>
7
1 1 acceptor
1 1 donor
1 2 acceptor
1 2 donor
1 20 hydrophobe
1 3 acceptor
1 3 donor

> <PUBCHEM_HEAVY_ATOM_COUNT>
20

> <PUBCHEM_ATOM_DEF_STEREO_COUNT>
0

> <PUBCHEM_ATOM_UDEF_STEREO_COUNT>
2

> <PUBCHEM_BOND_DEF_STEREO_COUNT>
0

> <PUBCHEM_BOND_UDEF_STEREO_COUNT>
0

> <PUBCHEM_ISOTOPIC_ATOM_COUNT>
0

> <PUBCHEM_COMPONENT_COUNT>
1

> <PUBCHEM_CACTVS_TAUTO_COUNT>
1

> <PUBCHEM_CONFORMER_ID>
002E021500000001

> <PUBCHEM_MMFF94_ENERGY>
14.211

> <PUBCHEM_FEATURE_SELFOVERLAP>
35.532

> <PUBCHEM_SHAPE_FINGERPRINT>
11315181 36 17988929990538472707
14123256 10 14979960267900849591
14202775 3 18411706486703791511
14251764 18 13334732427815318902
14251764 46 18410856560504978879
14251920 1 18334576837985602022
15061470 23 18334856121553636981
15510794 2 18334581248379575107
155225 1 18202281446831770952
21362267 313 18114737115050834681
21792934 111 17775279478670388600
232437 2 18333450941461389387
23521765 1 18341896298869286399
23581129 1 18409449184756307847
33684 2 18272652342217798591
67123 10 18273496780317636599
8209 1 18409730669035018583

> <PUBCHEM_SHAPE_MULTIPOLES>
393.98
42.64
1
0.69
39.44
0.07
0.01
0.12
0.55
-1.21
-0.11
-0.43
0.01
0.43

> <PUBCHEM_SHAPE_SELFOVERLAP>
724.287

> <PUBCHEM_SHAPE_VOLUME>
247.6

> <PUBCHEM_COORDINATE_TYPE>
2
5
10

$$$$
5280537
  SciTegic09112316443D

 42 43  0  0  0  0            999 V2000
    4.0509   -2.5130    0.2395 O   0  0
   -5.0653   -3.5821   -0.3405 O   0  0
   -0.6082    3.2930   -0.3234 O   0  0
    6.4814   -1.2626   -0.2610 O   0  0
   -1.6927    1.6570    0.9217 N   0  0
   -3.9108    1.9368   -0.1353 C   0  0
   -2.9802    2.3080    1.0166 C   0  0
   -4.2194    0.4607   -0.1906 C   0  0
   -3.4017   -0.3780   -0.9318 C   0  0
   -5.3152   -0.0303    0.5017 C   0  0
   -3.6873   -1.7424   -0.9822 C   0  0
   -5.6006   -1.3947    0.4516 C   0  0
   -0.6131    2.2114    0.2551 C   0  0
    2.9777    0.9294   -0.2658 C   0  0
   -4.7868   -2.2508   -0.2905 C   0  0
    1.7308    1.7147   -0.2693 C   0  0
    0.5867    1.3286    0.3145 C   0  0
    2.9215   -0.4316   -0.0129 C   0  0
    4.1019   -1.1750   -0.0100 C   0  0
    4.1817    1.5674   -0.5158 C   0  0
    5.3221   -0.5471   -0.2599 C   0  0
    5.3620    0.8241   -0.5125 C   0  0
    4.1644   -2.9233    1.6009 C   0  0
   -4.8469    2.5020   -0.0421 H   0  0
   -3.4697    2.2502   -1.0907 H   0  0
   -2.8287    3.3929    1.0309 H   0  0
   -3.4163    2.0159    1.9782 H   0  0
   -1.5980    0.7499    1.3696 H   0  0
   -2.5444    0.0070   -1.4765 H   0  0
   -5.9535    0.6281    1.0839 H   0  0
   -3.0498   -2.4041   -1.5623 H   0  0
   -6.4597   -1.7784    0.9953 H   0  0
    1.7869    2.6715   -0.7835 H   0  0
    0.4877    0.3983    0.8618 H   0  0
    1.9892   -0.9596    0.1633 H   0  0
    4.2292    2.6351   -0.7131 H   0  0
    6.3059    1.3258   -0.7086 H   0  0
   -5.8586   -3.7581    0.1941 H   0  0
    7.2233   -0.6631   -0.4515 H   0  0
    3.3393   -2.5161    2.1938 H   0  0
    5.1231   -2.6037    2.0214 H   0  0
    4.1141   -4.0150    1.6349 H   0  0
  1 19  1  0
  1 23  1  0
  2 15  1  0
  2 38  1  0
  3 13  2  0
  4 21  1  0
  4 39  1  0
  5  7  1  0
  5 13  1  0
  5 28  1  0
  6  7  1  0
  6  8  1  0
  6 24  1  0
  6 25  1  0
  7 26  1  0
  7 27  1  0
  8  9  2  0
  8 10  1  0
  9 11  1  0
  9 29  1  0
 10 12  2  0
 10 30  1  0
 11 15  2  0
 11 31  1  0
 12 15  1  0
 12 32  1  0
 13 17  1  0
 14 16  1  0
 14 18  2  0
 14 20  1  0
 16 17  2  0
 16 33  1  0
 17 34  1  0
 18 19  1  0
 18 35  1  0
 19 21  2  0
 20 22  2  0
 20 36  1  0
 21 22  1  0
 22 37  1  0
 23 40  1  0
 23 41  1  0
 23 42  1  0
M  END
> <Name>
5280537

> <OBJECTID>
9223372337505828878

> <PUBCHEM_COMPOUND_CID>
5280537

> <PUBCHEM_CONFORMER_RMSD>
0.8

> <PUBCHEM_CONFORMER_DIVERSEORDER>
1
49
47
25
35
19
44
4
48
66
64
14
51
46
65
12
21
60
28
16
26
39
37
10
13
68
45
57
67
38
56
40
11
7
32
23
62
58
29
20
30
17
31
36
61
54
15
6
24
41
50
53
3
55
22
52
5
8
9
34
2
33
70
27
69
18
59
63
43
42

> <PUBCHEM_MMFF94_PARTIAL_CHARGES>
35
1 -0.36
10 -0.15
11 -0.15
12 -0.15
13 0.62
14 0.03
15 0.08
16 -0.18
17 -0.14
18 -0.15
19 0.08
2 -0.53
20 -0.15
21 0.08
22 -0.15
23 0.28
28 0.37
29 0.15
3 -0.57
30 0.15
31 0.15
32 0.15
33 0.15
34 0.15
35 0.15
36 0.15
37 0.15
38 0.45
39 0.45
4 -0.53
5 -0.73
6 0.14
7 0.3
8 -0.14
9 -0.15

> <PUBCHEM_EFFECTIVE_ROTOR_COUNT>
7

> <PUBCHEM_PHARMACOPHORE_FEATURES>
7
1 1 acceptor
1 2 donor
1 3 acceptor
1 4 donor
1 5 donor
6 14 18 19 20 21 22 rings
6 8 9 10 11 12 15 rings

> <PUBCHEM_HEAVY_ATOM_COUNT>
23

> <PUBCHEM_ATOM_DEF_STEREO_COUNT>
0

> <PUBCHEM_ATOM_UDEF_STEREO_COUNT>
0

> <PUBCHEM_BOND_DEF_STEREO_COUNT>
1

> <PUBCHEM_BOND_UDEF_STEREO_COUNT>
0

> <PUBCHEM_ISOTOPIC_ATOM_COUNT>
0

> <PUBCHEM_COMPONENT_COUNT>
1

> <PUBCHEM_CACTVS_TAUTO_COUNT>
12

> <PUBCHEM_CONFORMER_ID>
50931900000001

> <PUBCHEM_MMFF94_ENERGY>
65.2564

> <PUBCHEM_FEATURE_SELFOVERLAP>
35.522

> <PUBCHEM_SHAPE_FINGERPRINT>
10074138 170 17201085772982690633
105312 117 14923946743293482745
11135609 149 16227435276109188658
11186622 123 18408598171452274346
117089 54 17975986676336650675
11796584 16 18270966726352227804
11963148 33 18118120261350115122
12107183 9 17905890275380111000
12174731 88 17975402530112747947
12633257 1 15554446353192577829
12760667 363 18272930553541577957
13103583 49 17845950618705134257
13167823 11 18411983529226006748
14251751 18 18201718470232397896
14251764 30 18118410777137499547
14480069 147 18113905948695736955
15250474 111 18264485096737451610
15352361 1 18412263969252508845
15537594 2 18410020935366711625
15728490 51 18413387632219738590
16110190 28 18272657865656530565
17492 89 18196089061457052013
17780758 139 17775291556160590249
17857418 61 18337669720401032616
20028762 73 18411418376619410114
21054139 6 18335987545246909908
22950370 63 18411420643728678589
23424784 1240 18130239172198376678
23559900 14 18271798073344820897
2838139 119 8358269115942070073
3004659 81 18259982682473510244
314194 84 18336276737562855585
3246872 21 18410851087963153223
329604 57 18411139177098926150
351380 3 18343021111838140951
439807 62 18335140916887954091
44062 13 18335697222548165109
44880168 125 17203337718661343775
46194498 28 17241606311155287357
5104073 3 17989207044781071912
559249 180 18411702046208072177
6431902 208 18410293652900201103
7495541 125 17917707994571789664
7970288 3 18339641278020500883
999808 66 18041575736441395163

> <PUBCHEM_SHAPE_MULTIPOLES>
444.87
16.42
3.75
0.96
3.55
1.2
-0.17
10.67
0.75
-1.8
-0.53
-0.02
0.26
-2.07

> <PUBCHEM_SHAPE_SELFOVERLAP>
939.893

> <PUBCHEM_SHAPE_VOLUME>
249.2

> <PUBCHEM_COORDINATE_TYPE>
2
5
10

$$$$
5281149
  SciTegic09112316443D

 42 41  0  0  1  0            999 V2000
    3.7095   -0.5828   -0.7782 O   0  0
   -1.6171   -2.7697   -0.1385 C   0  0
   -2.1014   -1.3175   -0.1387 C   0  0
   -0.1186   -2.9054    0.1510 C   0  0
   -3.5998   -1.1764   -0.4388 C   0  0
    0.3721   -4.3541    0.1319 C   0  0
   -4.1312    0.2614   -0.4694 C   0  0
    1.8459   -4.4448    0.4972 C   0  0
   -3.9836    0.9658    0.8480 C   0  0
   -3.3356    2.1307    0.9989 C   0  0
   -2.6798    2.8728   -0.1252 C   0  0
   -1.2820    2.4423   -0.2500 C   0  0
   -0.1396    2.0836   -0.3390 C   0  0
    3.6931    0.8257   -0.5632 C   0  0  1  0  0  0
    1.1629    1.6623   -0.4243 C   0  0
    2.3013    1.2857   -0.4891 C   0  0
    4.4011    1.1325    0.7227 C   0  0
    5.5029    1.8879    0.8047 C   0  0
   -1.8370   -3.2226   -1.1131 H   0  0
   -2.1819   -3.3383    0.6105 H   0  0
   -1.8748   -0.8714    0.8368 H   0  0
   -1.5350   -0.7523   -0.8885 H   0  0
    0.4461   -2.3229   -0.5877 H   0  0
    0.0947   -2.4627    1.1320 H   0  0
   -4.1657   -1.7523    0.3052 H   0  0
   -3.8107   -1.6405   -1.4106 H   0  0
    0.2160   -4.7853   -0.8636 H   0  0
   -0.2111   -4.9528    0.8410 H   0  0
   -5.2005    0.2291   -0.7127 H   0  0
   -3.6469    0.7771   -1.3017 H   0  0
    2.1785   -5.4872    0.4740 H   0  0
    2.0259   -4.0530    1.5034 H   0  0
    2.4602   -3.8759   -0.2081 H   0  0
   -4.4391    0.5034    1.7196 H   0  0
   -3.2797    2.5711    1.9914 H   0  0
   -2.7110    3.9435    0.1116 H   0  0
   -3.2150    2.7764   -1.0739 H   0  0
    4.2016    1.2961   -1.4124 H   0  0
    4.0039    0.6998    1.6385 H   0  0
    3.3045   -0.7539   -1.6460 H   0  0
    5.9757    2.0668    1.7642 H   0  0
    5.9495    2.3379   -0.0749 H   0  0
  1 14  1  0
  1 40  1  0
  2  3  1  0
  2  4  1  0
  2 19  1  0
  2 20  1  0
  3  5  1  0
  3 21  1  0
  3 22  1  0
  4  6  1  0
  4 23  1  0
  4 24  1  0
  5  7  1  0
  5 25  1  0
  5 26  1  0
  6  8  1  0
  6 27  1  0
  6 28  1  0
  7  9  1  0
  7 29  1  0
  7 30  1  0
  8 31  1  0
  8 32  1  0
  8 33  1  0
  9 10  2  0
  9 34  1  0
 10 11  1  0
 10 35  1  0
 11 12  1  0
 11 36  1  0
 11 37  1  0
 12 13  3  0
 13 15  1  0
 14 16  1  0
 14 17  1  0
 14 38  1  0
 15 16  3  0
 17 18  2  0
 17 39  1  0
 18 41  1  0
 18 42  1  0
M  END
> <Name>
5281149

> <OBJECTID>
9223372341800796174

> <PUBCHEM_COMPOUND_CID>
5281149

> <PUBCHEM_CONFORMER_RMSD>
1

> <PUBCHEM_CONFORMER_DIVERSEORDER>
1
254
209
5
437
60
25
493
309
529
655
100
489
590
585
438
425
56
17
236
455
233
611
34
659
130
153
340
449
20
204
609
556
199
372
483
217
329
110
193
302
102
46
445
413
553
117
439
73
551
343
36
129
328
122
619
144
321
490
569
640
185
10
202
378
212
428
370
3
412
113
530
491
183
480
156
465
366
105
19
634
450
177
15
584
665
22
247
604
180
154
461
76
13
601
16
111
543
557
579
165
80
24
382
214
515
494
99
597
171
78
574
18
107
267
23
639
662
629
39
12
561
2
33
61
57
59
8
4
27

> <PUBCHEM_MMFF94_PARTIAL_CHARGES>
16
1 -0.68
10 -0.29
11 0.34
12 -0.2
14 0.62
16 -0.2
17 -0.29
18 -0.3
34 0.15
35 0.15
39 0.15
40 0.4
41 0.15
42 0.15
7 0.14
9 -0.29

> <PUBCHEM_EFFECTIVE_ROTOR_COUNT>
8

> <PUBCHEM_PHARMACOPHORE_FEATURES>
4
1 1 acceptor
1 1 donor
1 18 hydrophobe
1 8 hydrophobe

> <PUBCHEM_HEAVY_ATOM_COUNT>
18

> <PUBCHEM_ATOM_DEF_STEREO_COUNT>
1

> <PUBCHEM_ATOM_UDEF_STEREO_COUNT>
0

> <PUBCHEM_BOND_DEF_STEREO_COUNT>
1

> <PUBCHEM_BOND_UDEF_STEREO_COUNT>
0

> <PUBCHEM_ISOTOPIC_ATOM_COUNT>
0

> <PUBCHEM_COMPONENT_COUNT>
1

> <PUBCHEM_CACTVS_TAUTO_COUNT>
1

> <PUBCHEM_CONFORMER_ID>
0050957D00000001

> <PUBCHEM_MMFF94_ENERGY>
1.3895

> <PUBCHEM_FEATURE_SELFOVERLAP>
20.297

> <PUBCHEM_SHAPE_FINGERPRINT>
14251757 5 18047773760321663534
14916288 52 17545608211039580335
15006816 218 18266182729610520431
152267 14 17260747868408602694
16120349 306 18410289203081695233
16719943 64 18336823199516466642
167882 2 17976533919736673013
18336668 15 17321283203178673078
21673915 165 18412262843813010132
3084891 72 18338231690727493991
445580 42 17970346138170906410
57091435 65 18192436268395627635
602551 16 18340203089812928688

> <PUBCHEM_SHAPE_MULTIPOLES>
364.56
9.43
5.82
0.89
7.75
8.45
-0.1
-6.5
-1.56
0.52
-0.73
0.09
-0.24
-0.38

> <PUBCHEM_SHAPE_SELFOVERLAP>
685.609

> <PUBCHEM_SHAPE_VOLUME>
222.6

> <PUBCHEM_COORDINATE_TYPE>
2
5
10

$$$$
5281157
  SciTegic09112316443D

 35 36  0  0  0  0            999 V2000
   -6.6424    1.0100    0.0016 O   0  0
   -3.8910   -3.0524    0.4282 O   0  0
   -0.2861    2.1894    0.1290 O   0  0
    7.5246   -0.9767   -0.0328 O   0  0
   -1.9566   -2.5646   -0.6611 O   0  0
   -1.1826    0.0233   -0.0031 N   0  0
   -2.5797    0.2574   -0.0033 C   0  0
   -3.4664   -0.8048   -0.0715 C   0  0
   -3.0271    1.5669    0.0664 C   0  0
   -4.8379   -0.5510   -0.0702 C   0  0
   -5.3042    0.7618   -0.0005 C   0  0
   -4.3986    1.8208    0.0679 C   0  0
    3.6591    0.5327    0.0477 C   0  0
   -0.1697    0.9714    0.0600 C   0  0
    2.3047    1.0624    0.0753 C   0  0
    1.1755    0.3194    0.0360 C   0  0
    3.8954   -0.7981    0.3914 C   0  0
    4.7218    1.3568   -0.3230 C   0  0
   -3.0119   -2.1878   -0.1456 C   0  0
    5.1945   -1.3053    0.3644 C   0  0
    6.0210    0.8498   -0.3500 C   0  0
    6.2574   -0.4814   -0.0064 C   0  0
   -2.4001    2.4433    0.1216 H   0  0
   -5.5649   -1.3571   -0.1360 H   0  0
   -0.9059   -0.9536   -0.0527 H   0  0
   -4.7506    2.8477    0.1226 H   0  0
    2.2294    2.1467    0.1210 H   0  0
    1.1995   -0.7621   -0.0372 H   0  0
    3.1032   -1.4710    0.7061 H   0  0
    4.5569    2.3965   -0.5956 H   0  0
    5.3665   -2.3428    0.6386 H   0  0
    6.8449    1.4962   -0.6400 H   0  0
   -6.7846    1.9707    0.0545 H   0  0
   -3.5780   -3.9807    0.3746 H   0  0
    7.5030   -1.9121    0.2330 H   0  0
  1 11  1  0
  1 33  1  0
  2 19  1  0
  2 34  1  0
  3 14  2  0
  4 22  1  0
  4 35  1  0
  5 19  2  0
  6  7  1  0
  6 14  1  0
  6 25  1  0
  7  8  2  0
  7  9  1  0
  8 10  1  0
  8 19  1  0
  9 12  2  0
  9 23  1  0
 10 11  2  0
 10 24  1  0
 11 12  1  0
 12 26  1  0
 13 15  1  0
 13 17  2  0
 13 18  1  0
 14 16  1  0
 15 16  2  0
 15 27  1  0
 16 28  1  0
 17 20  1  0
 17 29  1  0
 18 21  2  0
 18 30  1  0
 20 22  2  0
 20 31  1  0
 21 22  1  0
 21 32  1  0
M  END
> <Name>
5281157

> <OBJECTID>
9223372346095763470

> <PUBCHEM_COMPOUND_CID>
5281157

> <PUBCHEM_CONFORMER_RMSD>
0.8

> <PUBCHEM_CONFORMER_DIVERSEORDER>
1
8
4
7
6
5
3
2

> <PUBCHEM_MMFF94_PARTIAL_CHARGES>
35
1 -0.53
10 -0.15
11 0.08
12 -0.15
13 0.03
14 0.62
15 -0.18
16 -0.14
17 -0.15
18 -0.15
19 0.63
2 -0.65
20 -0.15
21 -0.15
22 0.08
23 0.15
24 0.15
25 0.37
26 0.15
27 0.15
28 0.15
29 0.15
3 -0.57
30 0.15
31 0.15
32 0.15
33 0.45
34 0.5
35 0.45
4 -0.53
5 -0.57
6 -0.55
7 0.12
8 0.09
9 -0.15

> <PUBCHEM_EFFECTIVE_ROTOR_COUNT>
5

> <PUBCHEM_PHARMACOPHORE_FEATURES>
9
1 1 donor
1 2 acceptor
1 3 acceptor
1 4 donor
1 5 acceptor
1 6 donor
3 2 5 19 anion
6 13 17 18 20 21 22 rings
6 7 8 9 10 11 12 rings

> <PUBCHEM_HEAVY_ATOM_COUNT>
22

> <PUBCHEM_ATOM_DEF_STEREO_COUNT>
0

> <PUBCHEM_ATOM_UDEF_STEREO_COUNT>
0

> <PUBCHEM_BOND_DEF_STEREO_COUNT>
1

> <PUBCHEM_BOND_UDEF_STEREO_COUNT>
0

> <PUBCHEM_ISOTOPIC_ATOM_COUNT>
0

> <PUBCHEM_COMPONENT_COUNT>
1

> <PUBCHEM_CACTVS_TAUTO_COUNT>
16

> <PUBCHEM_CONFORMER_ID>
50958500000001

> <PUBCHEM_MMFF94_ENERGY>
70.2779

> <PUBCHEM_FEATURE_SELFOVERLAP>
45.729

> <PUBCHEM_SHAPE_FINGERPRINT>
10299344 5 18333734607008259284
10411042 1 18050849124995684895
10595046 47 18335142050601123204
10835480 77 18342169024998349392
11045977 3 17988919002936119072
11315181 36 17489870448928132377
11524674 6 17489867137466214615
11796584 16 18342460339934616774
12107183 9 17688588260844814144
12236239 1 18186240645206528412
12516196 113 18060698394767911416
12616971 3 17385447652258501844
12788726 201 17774157873324536769
12916748 109 8790887397655459728
13167823 11 18408602595690231250
13288520 33 18411699889960234349
13533116 47 17417249823474997982
13914758 101 14836132018227049571
14251764 18 18342740724026323589
14341114 176 18411703209574497216
14420673 8 18410858745884060522
14617045 38 18409450254277329418
15042514 8 18336549443223597931
15183329 4 18408882919151457122
15196674 1 18410011074306630546
15250474 111 18262503867063558218
15537594 2 17894627037400659162
15849732 13 17748828506134787261
17492 89 18048598411090735707
17844677 252 18411706508346900296
17857418 61 18410853257406063978
19141452 34 18408885152639965621
19489759 90 17203610363454077937
20681677 155 18334292076314418465
21236236 1 18412262869946784767
21267235 1 18335987549467894209
220451 1 18187086144205337048
23035841 295 18408603651993736344
23402539 116 18411697694778181212
23536379 177 18408041788783299896
23559900 14 18270673285290909689
3004659 81 18334294254437902088
335352 9 18411134741210352685
3545911 37 18411699872221130993
4073 2 18113904909540153618
4214541 1 18410855468771097248
4325135 7 18260832588335793668
5104073 3 18272090547352299728
559249 180 18410854365312642383
59755656 215 18342461387932959206
59755656 520 16950282914262948747
6327066 14 17826504471627000205
67856867 119 18262804098304758340
7226269 152 17917433086505025361
7495541 125 18059855108447140160
999808 66 17895206532100777003

> <PUBCHEM_SHAPE_MULTIPOLES>
418.42
18.02
2.36
0.64
15.95
1.35
0.01
1.2
0.23
-2.57
0.01
0.08
0.05
-0.41

> <PUBCHEM_SHAPE_SELFOVERLAP>
903.449

> <PUBCHEM_SHAPE_VOLUME>
228.2

> <PUBCHEM_COORDINATE_TYPE>
2
5
10

$$$$
5281316
  SciTegic09112316443D

 86 89  0  0  1  0            999 V2000
    2.1122   -0.7962   -2.4823 O   0  0
   -2.4178   -1.6151    2.8608 O   0  0
    2.4641   -3.2275    0.5034 O   0  0
   -6.2023    2.0519    2.4658 O   0  0
    4.6987   -2.2058   -0.4019 O   0  0
   -5.2735    3.8031    0.4116 O   0  0
    6.9775    2.1201   -0.1107 O   0  0
    5.9683    1.4843    1.8676 O   0  0
   -0.9069   -1.2041   -1.0077 C   0  0  2  0  0  0
   -0.0609   -1.6503    0.2397 C   0  0  1  0  0  0
   -2.3643   -1.7381   -0.8407 C   0  0  1  0  0  0
   -3.0567   -1.3283    0.5190 C   0  0  2  0  0  0
    1.3637   -1.2534   -0.2167 C   0  0  2  0  0  0
   -0.0821   -1.8429   -2.1552 C   0  0
    1.3940   -1.7327   -1.6920 C   0  0  1  0  0  0
   -0.5996   -0.9412    1.4788 C   0  0
   -3.6906    0.1120    0.4696 C   0  0  1  0  0  0
   -2.0511   -1.3488    1.7122 C   0  0
   -3.2849   -1.4785   -2.0475 C   0  0
   -0.8879    0.3294   -1.2964 C   0  0
   -0.0860   -3.1875    0.5384 C   0  0
    2.5328   -1.8045    0.5949 C   0  0  1  0  0  0
   -4.3180    0.5026   -0.8614 C   0  0
   -4.1414   -2.4050    0.8079 C   0  0
   -4.7434    0.3519    1.5667 C   0  0
   -4.1332   -0.2528   -1.9608 C   0  0
   -5.1841    1.7709   -0.9167 C   0  0
   -5.0195    1.8387    1.7185 C   0  0  1  0  0  0
    2.4260   -1.4182    2.0683 C   0  0
    3.8768   -1.3774   -0.0104 C   0  0
   -5.1351    2.5757    0.3996 C   0  0
   -4.6976    2.7083   -2.0467 C   0  0
   -6.6623    1.4143   -1.1601 C   0  0
    4.1555    0.0882   -0.1106 C   0  0
    5.3086    0.5318   -0.6322 C   0  0
    5.7292    1.9763   -0.7989 C   0  0
    5.9729    2.2649   -2.2842 C   0  0
    4.7612    3.0138   -0.2190 C   0  0
    6.9454    1.8394    1.2225 C   0  0
    8.3123    2.0309    1.8065 C   0  0
   -2.2641   -2.8317   -0.8398 H   0  0
    1.4408   -0.1601   -0.1906 H   0  0
   -0.2530   -1.3560   -3.1216 H   0  0
   -0.3508   -2.8993   -2.2730 H   0  0
    1.8736   -2.7031   -1.8406 H   0  0
   -0.0669   -1.2239    2.3873 H   0  0
   -0.5441    0.1483    1.4121 H   0  0
   -2.8888    0.8327    0.6656 H   0  0
   -2.6985   -1.4406   -2.9722 H   0  0
   -3.9650   -2.3321   -2.1677 H   0  0
   -1.2184    0.9364   -0.4570 H   0  0
    0.1057    0.7041   -1.5602 H   0  0
   -1.5140    0.5776   -2.1589 H   0  0
    0.3101   -3.8004   -0.2763 H   0  0
    0.4206   -3.4408    1.4745 H   0  0
   -1.1038   -3.5556    0.7002 H   0  0
   -3.7038   -3.4104    0.8056 H   0  0
   -4.6041   -2.2832    1.7930 H   0  0
   -4.9440   -2.3866    0.0638 H   0  0
   -4.4077   -0.0240    2.5396 H   0  0
   -5.6745   -0.1867    1.3477 H   0  0
   -4.6255    0.0203   -2.8905 H   0  0
   -4.1882    2.3005    2.2645 H   0  0
    2.0642   -1.0952   -3.4062 H   0  0
    2.1206   -0.3763    2.2071 H   0  0
    1.7801   -2.0888    2.6398 H   0  0
    3.4102   -1.5139    2.5459 H   0  0
    2.8673   -3.5186   -0.3307 H   0  0
   -5.2840    3.6344   -2.0823 H   0  0
   -4.7833    2.2499   -3.0374 H   0  0
   -3.6492    2.9930   -1.8956 H   0  0
   -7.0431    0.7237   -0.3995 H   0  0
   -7.2949    2.3093   -1.1246 H   0  0
   -6.8122    0.9453   -2.1389 H   0  0
    3.4015    0.7686    0.2631 H   0  0
   -6.9340    1.6053    2.0068 H   0  0
    6.0369   -0.1960   -0.9886 H   0  0
    6.3565    3.2825   -2.4230 H   0  0
    5.0570    2.1563   -2.8752 H   0  0
    6.7344    1.5932   -2.6986 H   0  0
    5.2217    4.0095   -0.2245 H   0  0
    4.4472    2.8316    0.8118 H   0  0
    3.8455    3.0697   -0.8201 H   0  0
    8.6285    3.0690    1.6773 H   0  0
    9.0193    1.3496    1.3264 H   0  0
    8.2840    1.8061    2.8765 H   0  0
  1 15  1  0
  1 64  1  0
  2 18  2  0
  3 22  1  0
  3 68  1  0
  4 28  1  0
  4 76  1  0
  5 30  2  0
  6 31  2  0
  7 36  1  0
  7 39  1  0
  8 39  2  0
  9 10  1  0
  9 11  1  0
  9 14  1  0
  9 20  1  0
 10 13  1  0
 10 16  1  0
 10 21  1  0
 11 12  1  0
 11 19  1  0
 11 41  1  0
 12 17  1  0
 12 18  1  0
 12 24  1  0
 13 15  1  0
 13 22  1  0
 13 42  1  0
 14 15  1  0
 14 43  1  0
 14 44  1  0
 15 45  1  0
 16 18  1  0
 16 46  1  0
 16 47  1  0
 17 23  1  0
 17 25  1  0
 17 48  1  0
 19 26  1  0
 19 49  1  0
 19 50  1  0
 20 51  1  0
 20 52  1  0
 20 53  1  0
 21 54  1  0
 21 55  1  0
 21 56  1  0
 22 29  1  0
 22 30  1  0
 23 26  2  0
 23 27  1  0
 24 57  1  0
 24 58  1  0
 24 59  1  0
 25 28  1  0
 25 60  1  0
 25 61  1  0
 26 62  1  0
 27 31  1  0
 27 32  1  0
 27 33  1  0
 28 31  1  0
 28 63  1  0
 29 65  1  0
 29 66  1  0
 29 67  1  0
 30 34  1  0
 32 69  1  0
 32 70  1  0
 32 71  1  0
 33 72  1  0
 33 73  1  0
 33 74  1  0
 34 35  2  0
 34 75  1  0
 35 36  1  0
 35 77  1  0
 36 37  1  0
 36 38  1  0
 37 78  1  0
 37 79  1  0
 37 80  1  0
 38 81  1  0
 38 82  1  0
 38 83  1  0
 39 40  1  0
 40 84  1  0
 40 85  1  0
 40 86  1  0
M  END
> <Name>
5281316

> <OBJECTID>
9223372350390730766

> <PUBCHEM_COMPOUND_CID>
5281316

> <PUBCHEM_CONFORMER_RMSD>
1

> <PUBCHEM_CONFORMER_DIVERSEORDER>
1
25
22
27
14
21
2
26
18
28
4
24
20
5
11
17
19
23
16
15
6
8
10
13
7
9
12
3

> <PUBCHEM_MMFF94_PARTIAL_CHARGES>
32
1 -0.68
12 0.06
15 0.28
16 0.06
17 0.14
18 0.45
19 0.14
2 -0.57
22 0.34
23 -0.28
26 -0.29
27 0.2
28 0.34
3 -0.68
30 0.49
31 0.45
34 -0.14
35 -0.29
36 0.42
39 0.66
4 -0.68
40 0.06
5 -0.57
6 -0.57
62 0.15
64 0.4
68 0.4
7 -0.43
75 0.15
76 0.4
77 0.15
8 -0.57

> <PUBCHEM_EFFECTIVE_ROTOR_COUNT>
7.6

> <PUBCHEM_PHARMACOPHORE_FEATURES>
16
1 1 acceptor
1 1 donor
1 2 acceptor
1 3 acceptor
1 3 donor
1 4 acceptor
1 4 donor
1 5 acceptor
1 6 acceptor
1 8 acceptor
3 27 32 33 hydrophobe
3 36 37 38 hydrophobe
5 9 10 13 14 15 rings
6 11 12 17 19 23 26 rings
6 17 23 25 27 28 31 rings
6 9 10 11 12 16 18 rings

> <PUBCHEM_HEAVY_ATOM_COUNT>
40

> <PUBCHEM_ATOM_DEF_STEREO_COUNT>
9

> <PUBCHEM_ATOM_UDEF_STEREO_COUNT>
0

> <PUBCHEM_BOND_DEF_STEREO_COUNT>
1

> <PUBCHEM_BOND_UDEF_STEREO_COUNT>
0

> <PUBCHEM_ISOTOPIC_ATOM_COUNT>
0

> <PUBCHEM_COMPONENT_COUNT>
1

> <PUBCHEM_CACTVS_TAUTO_COUNT>
8

> <PUBCHEM_CONFORMER_ID>
50962400000001

> <PUBCHEM_MMFF94_ENERGY>
162.8118

> <PUBCHEM_FEATURE_SELFOVERLAP>
81.324

> <PUBCHEM_SHAPE_FINGERPRINT>
10319926 262 14418403348483477578
10533779 1 18341037528607201889
10554248 39 17346325834731493982
11135609 201 18341898502309017187
11578080 2 18335997401595805419
117089 54 9799394655492980093
12422481 6 16660360376994717878
12655364 131 15502362410486628161
12975358 362 18195266441945150353
13383661 66 12390353150576695229
13690498 29 16485831705173126311
13782708 43 9439402424092358980
13911987 19 17203325624381518911
14950920 106 13118581648877203269
15082195 135 17489580121960325967
15163728 17 18130792230852430847
15183329 4 14907909301377286986
15513586 35 17829619700682931165
15840311 113 18335983048094411189
16989378 47 11096164141338311820
19438510 23 18410291402115486776
19958102 18 11527941244842298580
20567600 247 9367345912396888748
20691028 202 18337957779547316521
21033648 144 18411413995282594349
21033648 29 17748829587791416427
21223535 225 18201998867890306780
21599406 157 15195569022051535332
22122407 14 18336827601889639016
22393880 68 14260483770862646055
23559900 14 17095806521527943470
23569914 152 11309549502614680697
23569914 2 17904720575640441812
25269216 80 13686299118791479277
2748736 6 18335698382083898236
2838139 119 18270400460736463725
3862424 121 12462704348167838653
392239 28 17386000715371170340
4112364 45 18336264522886635227
4144715 1 18336558182707117850
4258327 124 18342455920856387949
474113 269 12685098129170611233
484985 159 8646497306403710639
50677037 204 18410854334911196576
5104073 3 17676482843950028858
563151 74 18186518787410236050
57527293 21 15936693765723569542
57724786 102 18127418860548620735
6608658 132 16988853734773244609
999808 66 12973874910771627440

> <PUBCHEM_SHAPE_MULTIPOLES>
776.23
18.79
3.92
2.49
21.99
1.18
0.15
21.37
3.99
-0.23
0.25
-0.89
0.18
0.11

> <PUBCHEM_SHAPE_SELFOVERLAP>
1655.22

> <PUBCHEM_SHAPE_VOLUME>
428.2

> <PUBCHEM_COORDINATE_TYPE>
2
5
10

$$$$
5281319
  SciTegic09112316443D

 84 87  0  0  1  0            999 V2000
    2.2282    0.5996    2.5733 O   0  0
    2.4917    3.2274   -0.2147 O   0  0
   -2.3621    1.7852   -2.6972 O   0  0
    4.7460    2.1622    0.5861 O   0  0
   -6.5556   -1.1787   -2.7056 O   0  0
   -7.2558   -2.2522   -0.3017 O   0  0
    7.0897   -2.0825   -0.1088 O   0  0
    6.0641   -1.2817   -2.0176 O   0  0
   -0.8425    1.0097    1.1049 C   0  0  2  0  0  0
   -0.0081    1.5851   -0.0968 C   0  0  1  0  0  0
   -2.3126    1.5225    0.9847 C   0  0  1  0  0  0
    1.4248    1.1778    0.3223 C   0  0  2  0  0  0
   -2.9999    1.2153   -0.4048 C   0  0  1  0  0  0
   -0.0302    1.5615    2.3053 C   0  0
    1.4473    1.5245    1.8346 C   0  0  1  0  0  0
   -0.5362    0.9822   -1.3956 C   0  0
   -1.9942    1.3886   -1.5873 C   0  0
   -3.5967   -0.2447   -0.4847 C   0  0  1  0  0  0
   -0.7978   -0.5433    1.2493 C   0  0
   -3.2227    1.1411    2.1654 C   0  0
   -0.0652    3.1426   -0.2541 C   0  0
    2.5821    1.8201   -0.4374 C   0  0  1  0  0  0
   -4.1243    2.2782   -0.5883 C   0  0
   -4.2257   -0.7481    0.8158 C   0  0
   -4.0511   -0.0871    1.9750 C   0  0
   -5.0524   -2.0381    0.7067 C   0  0
   -4.5503   -0.4199   -1.6555 C   0  0
    2.4764    1.5705   -1.9403 C   0  0
    3.9353    1.3606    0.1224 C   0  0
   -6.1103   -1.8081   -0.3855 C   0  0
   -5.7076   -1.0894   -1.6237 C   0  0
   -4.2397   -3.2998    0.3367 C   0  0
   -5.7700   -2.3443    2.0363 C   0  0
    4.2372   -0.1033    0.0853 C   0  0
    5.3988   -0.5754    0.5610 C   0  0
    5.8418   -2.0224    0.5923 C   0  0
    6.0952   -2.4435    2.0439 C   0  0
    4.8874   -3.0165   -0.0792 C   0  0
    7.0487   -1.6801   -1.4103 C   0  0
    8.4164   -1.7956   -2.0123 C   0  0
   -2.2372    2.6142    1.0763 H   0  0
    1.5235    0.0924    0.2048 H   0  0
   -0.1826    0.9822    3.2226 H   0  0
   -0.3245    2.5952    2.5221 H   0  0
    1.8631    2.5122    2.0529 H   0  0
   -0.4632   -0.1075   -1.4305 H   0  0
   -0.0106    1.3554   -2.2751 H   0  0
   -2.7757   -0.9291   -0.7230 H   0  0
    0.2011   -0.9158    1.4985 H   0  0
   -1.4309   -0.8853    2.0733 H   0  0
   -1.0944   -1.0786    0.3510 H   0  0
   -3.9166    1.9688    2.3631 H   0  0
   -2.6313    1.0329    3.0816 H   0  0
    0.4362    3.4902   -1.1623 H   0  0
   -1.0904    3.5039   -0.3819 H   0  0
    0.3202    3.6872    0.6125 H   0  0
   -4.5945    2.2287   -1.5762 H   0  0
   -4.9184    2.1681    0.1570 H   0  0
   -3.7187    3.2932   -0.4998 H   0  0
   -4.5080   -0.4295    2.8971 H   0  0
   -4.2634    0.0302   -2.6028 H   0  0
    3.1617    0.8479    2.4751 H   0  0
    3.4570    1.7278   -2.4089 H   0  0
    1.8168    2.2798   -2.4456 H   0  0
    2.1891    0.5406   -2.1743 H   0  0
    2.8982    3.4465    0.6397 H   0  0
   -3.4681   -3.5030    1.0878 H   0  0
   -4.8870   -4.1815    0.2630 H   0  0
   -3.7385   -3.1923   -0.6314 H   0  0
   -5.0654   -2.5584    2.8485 H   0  0
   -6.4374   -1.5295    2.3429 H   0  0
   -6.4058   -3.2341    1.9404 H   0  0
    3.4925   -0.7580   -0.3482 H   0  0
   -7.3148   -1.7260   -2.4403 H   0  0
    6.1170    0.1276    0.9821 H   0  0
    6.4945   -3.4636    2.0870 H   0  0
    6.8480   -1.8015    2.5170 H   0  0
    5.1799   -2.4041    2.6445 H   0  0
    4.5671   -2.7444   -1.0881 H   0  0
    5.3629   -4.0012   -0.1670 H   0  0
    3.9747   -3.1416    0.5160 H   0  0
    8.7487   -2.8362   -1.9804 H   0  0
    9.1145   -1.1510   -1.4725 H   0  0
    8.3809   -1.4731   -3.0568 H   0  0
  1 15  1  0
  1 62  1  0
  2 22  1  0
  2 66  1  0
  3 17  2  0
  4 29  2  0
  5 31  1  0
  5 74  1  0
  6 30  2  0
  7 36  1  0
  7 39  1  0
  8 39  2  0
  9 10  1  0
  9 11  1  0
  9 14  1  0
  9 19  1  0
 10 12  1  0
 10 16  1  0
 10 21  1  0
 11 13  1  0
 11 20  1  0
 11 41  1  0
 12 15  1  0
 12 22  1  0
 12 42  1  0
 13 17  1  0
 13 18  1  0
 13 23  1  0
 14 15  1  0
 14 43  1  0
 14 44  1  0
 15 45  1  0
 16 17  1  0
 16 46  1  0
 16 47  1  0
 18 24  1  0
 18 27  1  0
 18 48  1  0
 19 49  1  0
 19 50  1  0
 19 51  1  0
 20 25  1  0
 20 52  1  0
 20 53  1  0
 21 54  1  0
 21 55  1  0
 21 56  1  0
 22 28  1  0
 22 29  1  0
 23 57  1  0
 23 58  1  0
 23 59  1  0
 24 25  2  0
 24 26  1  0
 25 60  1  0
 26 30  1  0
 26 32  1  0
 26 33  1  0
 27 31  2  0
 27 61  1  0
 28 63  1  0
 28 64  1  0
 28 65  1  0
 29 34  1  0
 30 31  1  0
 32 67  1  0
 32 68  1  0
 32 69  1  0
 33 70  1  0
 33 71  1  0
 33 72  1  0
 34 35  2  0
 34 73  1  0
 35 36  1  0
 35 75  1  0
 36 37  1  0
 36 38  1  0
 37 76  1  0
 37 77  1  0
 37 78  1  0
 38 79  1  0
 38 80  1  0
 38 81  1  0
 39 40  1  0
 40 82  1  0
 40 83  1  0
 40 84  1  0
M  END
> <Name>
5281319

> <OBJECTID>
9223372354685698062

> <PUBCHEM_COMPOUND_CID>
5281319

> <PUBCHEM_CONFORMER_RMSD>
1

> <PUBCHEM_CONFORMER_DIVERSEORDER>
1
18
21
20
13
4
17
22
19
12
24
5
6
23
8
7
9
16
25
14
3
11
10
15
2

> <PUBCHEM_MMFF94_PARTIAL_CHARGES>
34
1 -0.68
13 0.06
15 0.28
16 0.06
17 0.45
18 0.28
2 -0.68
20 0.14
22 0.34
24 -0.28
25 -0.29
26 0.2
27 -0.29
29 0.49
3 -0.57
30 0.49
31 0.09
34 -0.14
35 -0.29
36 0.42
39 0.66
4 -0.57
40 0.06
5 -0.53
6 -0.57
60 0.15
61 0.15
62 0.4
66 0.4
7 -0.43
73 0.15
74 0.45
75 0.15
8 -0.57

> <PUBCHEM_EFFECTIVE_ROTOR_COUNT>
7.2

> <PUBCHEM_PHARMACOPHORE_FEATURES>
15
1 1 acceptor
1 1 donor
1 2 acceptor
1 2 donor
1 3 acceptor
1 4 acceptor
1 5 donor
1 6 acceptor
1 8 acceptor
3 26 32 33 hydrophobe
3 36 37 38 hydrophobe
5 9 10 12 14 15 rings
6 11 13 18 20 24 25 rings
6 18 24 26 27 30 31 rings
6 9 10 11 13 16 17 rings

> <PUBCHEM_HEAVY_ATOM_COUNT>
40

> <PUBCHEM_ATOM_DEF_STEREO_COUNT>
8

> <PUBCHEM_ATOM_UDEF_STEREO_COUNT>
0

> <PUBCHEM_BOND_DEF_STEREO_COUNT>
1

> <PUBCHEM_BOND_UDEF_STEREO_COUNT>
0

> <PUBCHEM_ISOTOPIC_ATOM_COUNT>
0

> <PUBCHEM_COMPONENT_COUNT>
1

> <PUBCHEM_CACTVS_TAUTO_COUNT>
10

> <PUBCHEM_CONFORMER_ID>
50962700000001

> <PUBCHEM_MMFF94_ENERGY>
161.9586

> <PUBCHEM_FEATURE_SELFOVERLAP>
76.25

> <PUBCHEM_SHAPE_FINGERPRINT>
10 15 12967128341129204483
10319926 262 16056610811384402580
11377469 6 18130795517109300720
117089 54 18410863165516444342
12422481 6 15769788939349608889
131258 43 18188500171666964444
1361 4 18268992162271801222
13690498 29 17894633630154248757
13782708 43 18412542128171504134
13811026 1 18410565193363952226
13911987 19 14129058119175663105
13947930 73 18272374229942791838
14068700 675 18408885105949245968
14118638 360 18342458183766368216
15001296 14 18263638631819621730
15064981 194 14779544613549401223
15064986 266 18334862719145408997
15082195 135 15430032158950377808
15183329 4 17458624480604036658
15361156 5 17531539693231855028
16989378 47 18334295370744679922
18393751 57 11743836989176558133
19438510 23 8862942758331207086
19841028 212 18270676588690543527
19958102 18 18260264165845197842
21033648 29 12679194803611130515
21033650 10 16370998565129481421
21987483 16 16269653455882666951
22122407 14 9655279433415607862
22223350 30 17771897509235916263
22393880 68 17168971443980612249
23559900 14 18189885591215471169
23569914 152 17536839258095401895
23569914 2 12030105651415973419
24983565 74 17914324934474425975
25269216 80 17603877697157686543
2748736 6 9583227324129999178
2838139 119 7997428108467529459
32027 91 18269831077127846043
3383291 50 18060133245807676126
3862424 121 17533522233003669179
392239 28 16056873654386606525
4258327 124 10881398743204236723
44880168 125 18266452282592240207
474113 269 17489296495975153511
5104073 3 15267338556805854240
513202 73 18131068238720882061
563151 74 11023831656440018644
57527293 21 17203054105513618729
57527295 17 17749949943449569208
6608658 132 14634859808623027711
86090 222 18272071800258591442
9896288 288 17058667152806666688

> <PUBCHEM_SHAPE_MULTIPOLES>
776.23
19.58
3.63
2.47
19.36
0.68
0.12
21.5
6.77
0.7
-0.09
-0.73
0.01
0.78

> <PUBCHEM_SHAPE_SELFOVERLAP>
1660.896

> <PUBCHEM_SHAPE_VOLUME>
425.1

> <PUBCHEM_COORDINATE_TYPE>
2
5
10

$$$$
5281417
  SciTegic09112316443D

 40 42  0  0  1  0            999 V2000
    1.7534   -0.4945    0.4893 O   0  0
    0.7519    1.5963    0.2257 O   0  0
    5.4474    1.0068   -0.4943 O   0  0
    4.9899   -1.8465   -0.5646 O   0  0
    3.0019    2.4628   -1.2559 O   0  0
    1.2039   -3.1718    0.7827 O   0  0
   -4.4664   -0.2182    0.6426 O   0  0
   -0.5015    1.4774    2.7009 O   0  0
   -6.3609   -1.0307   -0.3552 O   0  0
    4.1753    0.4136   -0.7593 C   0  0  1  0  0  0
    4.0958   -0.9011    0.0169 C   0  0  1  0  0  0
    3.0663    1.3756   -0.3333 C   0  0  2  0  0  0
    2.6733   -1.4649   -0.0140 C   0  0  1  0  0  0
    1.7045    0.6814   -0.3154 C   0  0  1  0  0  0
    2.5422   -2.7146    0.8508 C   0  0
   -0.5367    1.1490    0.3285 C   0  0
   -1.2123    0.7524   -0.8264 C   0  0
   -1.1618    1.0911    1.5737 C   0  0
   -2.5278    0.2924   -0.7377 C   0  0
   -3.1396    0.2400    0.5120 C   0  0
   -2.4741    0.6338    1.6711 C   0  0
   -3.2807   -0.1338   -1.9049 C   0  0
   -4.5373   -0.5662   -1.7728 C   0  0
   -5.2067   -0.6305   -0.4604 C   0  0
    4.1365    0.2346   -1.8409 H   0  0
    4.4221   -0.7342    1.0508 H   0  0
    3.2938    1.8064    0.6491 H   0  0
    2.3756   -1.7288   -1.0380 H   0  0
    1.4151    0.4187   -1.3412 H   0  0
    3.1988   -3.5178    0.5043 H   0  0
    2.7691   -2.5012    1.9006 H   0  0
    6.1287    0.3668   -0.7627 H   0  0
    4.7040   -2.0065   -1.4802 H   0  0
    2.8022    2.1005   -2.1359 H   0  0
    0.6295   -2.4475    1.0851 H   0  0
   -0.7293    0.8176   -1.7981 H   0  0
   -2.9766    0.5819    2.6326 H   0  0
   -2.8077   -0.0952   -2.8799 H   0  0
   -1.0909    1.3675    3.4667 H   0  0
   -5.1056   -0.8859   -2.6394 H   0  0
  1 13  1  0
  1 14  1  0
  2 14  1  0
  2 16  1  0
  3 10  1  0
  3 32  1  0
  4 11  1  0
  4 33  1  0
  5 12  1  0
  5 34  1  0
  6 15  1  0
  6 35  1  0
  7 20  1  0
  7 24  1  0
  8 18  1  0
  8 39  1  0
  9 24  2  0
 10 11  1  0
 10 12  1  0
 10 25  1  0
 11 13  1  0
 11 26  1  0
 12 14  1  0
 12 27  1  0
 13 15  1  0
 13 28  1  0
 14 29  1  0
 15 30  1  0
 15 31  1  0
 16 17  1  0
 16 18  2  0
 17 19  2  0
 17 36  1  0
 18 21  1  0
 19 20  1  0
 19 22  1  0
 20 21  2  0
 21 37  1  0
 22 23  2  0
 22 38  1  0
 23 24  1  0
 23 40  1  0
M  END
> <Name>
5281417

> <OBJECTID>
9223372358980665358

> <PUBCHEM_COMPOUND_CID>
5281417

> <PUBCHEM_CONFORMER_RMSD>
0.8

> <PUBCHEM_CONFORMER_DIVERSEORDER>
2
9
26
67
41
59
44
68
43
48
47
16
13
63
65
64
40
31
70
25
23
19
62
61
57
53
7
55
76
71
73
1
10
52
66
45
8
12
50
21
3
72
74
20
75
51
27
36
15
60
35
17
14
49
46
5
28
38
33
4
56
69
24
39
6
30
22
42
58
37
34
11
29
54
32
18

> <PUBCHEM_MMFF94_PARTIAL_CHARGES>
33
1 -0.56
10 0.28
11 0.28
12 0.28
13 0.28
14 0.56
15 0.28
16 0.08
17 -0.15
18 0.08
19 0.03
2 -0.36
20 0.08
21 -0.15
22 -0.18
23 -0.14
24 0.71
3 -0.68
32 0.4
33 0.4
34 0.4
35 0.4
36 0.15
37 0.15
38 0.15
39 0.45
4 -0.68
40 0.15
5 -0.68
6 -0.68
7 -0.23
8 -0.53
9 -0.57

> <PUBCHEM_EFFECTIVE_ROTOR_COUNT>
4.2

> <PUBCHEM_PHARMACOPHORE_FEATURES>
15
1 1 acceptor
1 2 acceptor
1 3 acceptor
1 3 donor
1 4 acceptor
1 4 donor
1 5 acceptor
1 5 donor
1 6 acceptor
1 6 donor
1 8 donor
1 9 acceptor
6 1 10 11 12 13 14 rings
6 16 17 18 19 20 21 rings
6 7 19 20 22 23 24 rings

> <PUBCHEM_HEAVY_ATOM_COUNT>
24

> <PUBCHEM_ATOM_DEF_STEREO_COUNT>
5

> <PUBCHEM_ATOM_UDEF_STEREO_COUNT>
0

> <PUBCHEM_BOND_DEF_STEREO_COUNT>
0

> <PUBCHEM_BOND_UDEF_STEREO_COUNT>
0

> <PUBCHEM_ISOTOPIC_ATOM_COUNT>
0

> <PUBCHEM_COMPONENT_COUNT>
1

> <PUBCHEM_CACTVS_TAUTO_COUNT>
3

> <PUBCHEM_CONFORMER_ID>
50968900000002

> <PUBCHEM_MMFF94_ENERGY>
80.8954

> <PUBCHEM_FEATURE_SELFOVERLAP>
76.214

> <PUBCHEM_SHAPE_FINGERPRINT>
10366900 7 17386014927307241374
11796584 16 18130788980142254591
12236239 1 18131075921805360385
12553582 1 17346306107888297549
12596602 18 17847062189909974576
12788726 201 17775576316713130513
13009979 54 17843398475881346666
13836976 161 18186805815990137124
13911987 19 17969805127427956452
14251757 17 17530959142866054931
14659021 117 15953547796412630778
14787075 74 18060412556499937296
15183329 4 18336255749028026581
15375462 189 18131345311007551913
15537594 2 18272928354049253039
17134984 74 18262507217407028523
17138139 8 17984405593271590103
1813 80 18130798862192563829
18222031 100 16271633564575812349
200 152 18413108355253758401
20028762 73 18342455894781336766
20511986 3 18201715111784562033
20645477 70 18113616781236893396
20715895 44 7996323125658723111
21285901 2 17313095333058654799
2297311 6 16128389180824009544
235170 7 17603575314543988559
23557571 272 15410627972725889241
23559900 14 15936128547895170168
23596394 208 17821442435232850566
23598288 3 17844529894625810345
238 59 18040152890399936306
2838139 119 9366801628788652187
2871803 45 18334295344816308766
3004659 81 18412822469482674503
33382 64 18335704975090669939
351380 3 17989202655550984439
4098825 35 18187922847080014605
4340502 62 18339071717985511680
4409770 3 15749478030280312097
46194498 28 17530965829966644349
59682541 52 18117533216507857319
602551 16 16200426983530877062
7970288 3 17489579078489658479
8863177 126 17699563951539836687

> <PUBCHEM_SHAPE_MULTIPOLES>
441.08
11.61
2.27
1.66
4.26
1.27
0.48
3.62
-4.08
-2.85
0.48
1.35
-0.48
-1.45

> <PUBCHEM_SHAPE_SELFOVERLAP>
950.918

> <PUBCHEM_SHAPE_VOLUME>
239.3

> <PUBCHEM_COORDINATE_TYPE>
2
5
10

$$$$
5282102
  SciTegic09112316443D

 52 55  0  0  1  0            999 V2000
    1.1523    1.8936    0.0008 O   0  0
    0.8724    0.0082   -1.3449 O   0  0
    5.1571    2.0928   -0.8873 O   0  0
    4.1176    3.5288    1.3960 O   0  0
    3.6695   -0.4180   -1.2915 O   0  0
   -0.0789    3.4190    1.9278 O   0  0
   -1.9903   -1.6153    0.3154 O   0  0
   -1.1677    1.8797   -1.6112 O   0  0
   -3.6317    2.6715   -1.2394 O   0  0
   -6.4995   -0.3334    1.0609 O   0  0
    2.9262   -5.5296    0.7048 O   0  0
    4.0126    1.6755   -0.1414 C   0  0  1  0  0  0
    3.3108    2.9265    0.3873 C   0  0  1  0  0  0
    3.0859    0.8610   -1.0442 C   0  0  2  0  0  0
    1.9432    2.5738    0.9770 C   0  0  1  0  0  0
    1.7208    0.6462   -0.3908 C   0  0  1  0  0  0
    1.1743    3.8200    1.4047 C   0  0
   -0.3872   -0.2163   -0.8330 C   0  0
   -0.7255   -1.3443   -0.1822 C   0  0
   -1.4168    0.8328   -1.0288 C   0  0
   -2.7535    0.5449   -0.4864 C   0  0
   -2.9708   -0.6699    0.1599 C   0  0
    0.2309   -2.4411    0.0507 C   0  0
   -3.7917    1.4707   -0.6166 C   0  0
   -4.2303   -0.9675    0.6808 C   0  0
    1.0099   -2.4543    1.2080 C   0  0
    0.3583   -3.4665   -0.8867 C   0  0
   -5.0503    1.1710   -0.0941 C   0  0
   -5.2695   -0.0456    0.5532 C   0  0
    1.9155   -3.4922    1.4277 C   0  0
    1.2638   -4.5044   -0.6669 C   0  0
    2.0425   -4.5173    0.4903 C   0  0
    4.3917    1.0620    0.6844 H   0  0
    3.2029    3.6506   -0.4308 H   0  0
    2.9741    1.3556   -2.0171 H   0  0
    2.0507    1.9235    1.8558 H   0  0
    1.8354    0.0042    0.4889 H   0  0
    0.9848    4.4855    0.5559 H   0  0
    1.6998    4.3798    2.1827 H   0  0
    4.8499    2.6255   -1.6405 H   0  0
    3.7865    4.4304    1.5434 H   0  0
    3.0446   -0.9226   -1.8400 H   0  0
   -0.5417    2.9195    1.2333 H   0  0
   -4.3966   -1.9167    1.1842 H   0  0
    0.9155   -1.6688    1.9540 H   0  0
   -0.2418   -3.4702   -1.7935 H   0  0
   -5.8639    1.8861   -0.1910 H   0  0
    2.5148   -3.4916    2.3343 H   0  0
    1.3585   -5.3000   -1.4009 H   0  0
   -2.7196    2.7745   -1.5510 H   0  0
   -6.4723   -1.2139    1.4734 H   0  0
    3.3792   -5.3783    1.5522 H   0  0
  1 15  1  0
  1 16  1  0
  2 16  1  0
  2 18  1  0
  3 12  1  0
  3 40  1  0
  4 13  1  0
  4 41  1  0
  5 14  1  0
  5 42  1  0
  6 17  1  0
  6 43  1  0
  7 19  1  0
  7 22  1  0
  8 20  2  0
  9 24  1  0
  9 50  1  0
 10 29  1  0
 10 51  1  0
 11 32  1  0
 11 52  1  0
 12 13  1  0
 12 14  1  0
 12 33  1  0
 13 15  1  0
 13 34  1  0
 14 16  1  0
 14 35  1  0
 15 17  1  0
 15 36  1  0
 16 37  1  0
 17 38  1  0
 17 39  1  0
 18 19  2  0
 18 20  1  0
 19 23  1  0
 20 21  1  0
 21 22  1  0
 21 24  2  0
 22 25  2  0
 23 26  2  0
 23 27  1  0
 24 28  1  0
 25 29  1  0
 25 44  1  0
 26 30  1  0
 26 45  1  0
 27 31  2  0
 27 46  1  0
 28 29  2  0
 28 47  1  0
 30 32  2  0
 30 48  1  0
 31 32  1  0
 31 49  1  0
M  END
> <Name>
5282102

> <OBJECTID>
9223372363275632654

> <PUBCHEM_COMPOUND_CID>
5282102

> <PUBCHEM_CONFORMER_RMSD>
0.8

> <PUBCHEM_CONFORMER_DIVERSEORDER>
1
50
41
3
43
30
37
48
31
49
33
40
4
36
32
38
22
39
8
45
5
27
47
12
34
6
2
35
19
42
13
44
24
26
23
25
28
15
46
29
21
17
20
7
16
18
14
11
10
9

> <PUBCHEM_MMFF94_PARTIAL_CHARGES>
45
1 -0.56
10 -0.53
11 -0.53
12 0.28
13 0.28
14 0.28
15 0.28
16 0.56
17 0.28
18 0.09
19 0.05
2 -0.36
20 0.47
21 0.09
22 0.08
23 0.03
24 0.08
25 -0.15
26 -0.15
27 -0.15
28 -0.15
29 0.08
3 -0.68
30 -0.15
31 -0.15
32 0.08
4 -0.68
40 0.4
41 0.4
42 0.4
43 0.4
44 0.15
45 0.15
46 0.15
47 0.15
48 0.15
49 0.15
5 -0.68
50 0.45
51 0.45
52 0.45
6 -0.68
7 -0.16
8 -0.57
9 -0.53

> <PUBCHEM_EFFECTIVE_ROTOR_COUNT>
5.2

> <PUBCHEM_PHARMACOPHORE_FEATURES>
19
1 1 acceptor
1 10 donor
1 11 donor
1 2 acceptor
1 3 acceptor
1 3 donor
1 4 acceptor
1 4 donor
1 5 acceptor
1 5 donor
1 6 acceptor
1 6 donor
1 7 acceptor
1 8 acceptor
1 9 donor
6 1 12 13 14 15 16 rings
6 21 22 24 25 28 29 rings
6 23 26 27 30 31 32 rings
6 7 18 19 20 21 22 rings

> <PUBCHEM_HEAVY_ATOM_COUNT>
32

> <PUBCHEM_ATOM_DEF_STEREO_COUNT>
5

> <PUBCHEM_ATOM_UDEF_STEREO_COUNT>
0

> <PUBCHEM_BOND_DEF_STEREO_COUNT>
0

> <PUBCHEM_BOND_UDEF_STEREO_COUNT>
0

> <PUBCHEM_ISOTOPIC_ATOM_COUNT>
0

> <PUBCHEM_COMPONENT_COUNT>
1

> <PUBCHEM_CACTVS_TAUTO_COUNT>
57

> <PUBCHEM_CONFORMER_ID>
50993600000001

> <PUBCHEM_MMFF94_ENERGY>
102.6254

> <PUBCHEM_FEATURE_SELFOVERLAP>
96.528

> <PUBCHEM_SHAPE_FINGERPRINT>
10074138 170 17618765290650650882
10165383 225 18336273443285990253
10290309 65 18409157836241186260
11014199 57 17619633484225554738
12156800 1 11271671524431862810
12160290 23 17320969172064703214
12422481 6 17969481763429018130
12633257 1 18051393365295910440
12741549 16 17623546680463118083
12788726 201 17400931795229495934
131258 43 17911242715797886606
13140716 1 18337952418979400203
14028597 1 18059585645850131880
140371 6 17403455174509602991
14114211 68 18116741593135470220
14790565 3 18263089970863568124
14955137 171 18267576902129187298
15230672 131 18263363746240211956
15475509 84 17907872704089553713
15927050 60 18339082700360092342
17980427 26 18270665545917597940
20028762 73 18050296065929985847
20642791 13 17765430237680759214
21033648 29 18197217168397271817
21120745 212 17476649676872622206
21304303 172 17405420001651314263
21796203 349 17979101313367765755
21927370 108 17616827526029962034
22182313 1 17749669589738553719
23558518 356 17620185872595399804
23559900 14 17973998458506943951
3298306 158 18410009927181032702
3411729 13 18260832570480931411
3418910 222 17758681049892165058
5265222 85 18189070840356416692
5385378 56 18410583868293225273
6442390 28 18264772240727886916
6679774 75 18114731708125626122
81228 2 17398943263782962910
9777508 108 17908141328080554394

> <PUBCHEM_SHAPE_MULTIPOLES>
593.98
9.3
6.57
1.41
10.38
6.22
0.15
-4.89
0.87
-8.96
2.33
-0.38
-0.53
0.69

> <PUBCHEM_SHAPE_SELFOVERLAP>
1306.578

> <PUBCHEM_SHAPE_VOLUME>
316

> <PUBCHEM_COORDINATE_TYPE>
2
5
10

$$$$
5283266
  SciTegic09112316442D

 67 66  0  0  1  0            999 V2000
    7.1962   -3.5950    0.0000 O   0  0
    5.4641   -3.5950    0.0000 O   0  0
    3.7320   -2.5950    0.0000 O   0  0
    2.8660   -1.0950    0.0000 O   0  0
   10.6603   -2.5950    0.0000 C   0  0
    9.7942   -2.0950    0.0000 C   0  0
   11.5263   -2.0950    0.0000 C   0  0
    8.9282   -2.5950    0.0000 C   0  0
   12.3923   -2.5950    0.0000 C   0  0
    8.0622   -2.0950    0.0000 C   0  0
   13.2583   -2.0950    0.0000 C   0  0
    7.1962   -2.5950    0.0000 C   0  0
    6.3301   -2.0950    0.0000 C   0  0
    5.4641   -2.5950    0.0000 C   0  0
   14.1244   -2.5950    0.0000 C   0  0
    4.5981   -2.0950    0.0000 C   0  0
   14.9904    1.9050    0.0000 C   0  0
   14.1244    2.4050    0.0000 C   0  0
   14.9904    0.9050    0.0000 C   0  0
   14.9904   -2.0950    0.0000 C   0  0
   14.1244    3.4050    0.0000 C   0  0
   14.9904   -1.0950    0.0000 C   0  0
   15.8564    0.4050    0.0000 C   0  0
   15.8564   -0.5950    0.0000 C   0  0
   13.2583    3.9050    0.0000 C   0  0
    2.8660   -2.0950    0.0000 C   0  0
    2.0000   -2.5950    0.0000 C   0  0
   10.2617   -3.0700    0.0000 H   0  0
   11.0588   -3.0700    0.0000 H   0  0
   10.1928   -1.6200    0.0000 H   0  0
    9.3957   -1.6200    0.0000 H   0  0
   11.9248   -1.6200    0.0000 H   0  0
   11.1278   -1.6200    0.0000 H   0  0
    8.5297   -3.0700    0.0000 H   0  0
    9.3267   -3.0700    0.0000 H   0  0
   11.9938   -3.0700    0.0000 H   0  0
   12.7908   -3.0700    0.0000 H   0  0
    8.4607   -1.6200    0.0000 H   0  0
    7.6636   -1.6200    0.0000 H   0  0
   13.6569   -1.6200    0.0000 H   0  0
   12.8598   -1.6200    0.0000 H   0  0
    6.7287   -1.6200    0.0000 H   0  0
    5.9316   -1.6200    0.0000 H   0  0
    6.2002   -3.0200    0.0000 H   0  0
   14.1244   -3.2150    0.0000 H   0  0
   15.6010    1.7973    0.0000 H   0  0
   15.2024    2.4876    0.0000 H   0  0
    4.9966   -1.6200    0.0000 H   0  0
    4.1996   -1.6200    0.0000 H   0  0
   13.5138    2.5127    0.0000 H   0  0
   13.9123    1.8224    0.0000 H   0  0
   14.3798    1.0127    0.0000 H   0  0
   14.7783    0.3224    0.0000 H   0  0
   15.5273   -2.4050    0.0000 H   0  0
   14.7349    3.2973    0.0000 H   0  0
   14.3364    3.9876    0.0000 H   0  0
   14.7783   -0.5124    0.0000 H   0  0
   14.3798   -1.2027    0.0000 H   0  0
   16.3933    0.7150    0.0000 H   0  0
   16.3933   -0.9050    0.0000 H   0  0
    4.9272   -3.9050    0.0000 H   0  0
   13.5683    4.4419    0.0000 H   0  0
   12.7214    4.2150    0.0000 H   0  0
   12.9483    3.3681    0.0000 H   0  0
    1.6900   -2.0581    0.0000 H   0  0
    1.4631   -2.9050    0.0000 H   0  0
    2.3100   -3.1319    0.0000 H   0  0
  1 12  2  0
  2 14  1  0
  2 61  1  0
  3 16  1  0
  3 26  1  0
  4 26  2  0
  5  6  1  0
  5  7  1  0
  5 28  1  0
  5 29  1  0
  6  8  1  0
  6 30  1  0
  6 31  1  0
  7  9  1  0
  7 32  1  0
  7 33  1  0
  8 10  1  0
  8 34  1  0
  8 35  1  0
  9 11  1  0
  9 36  1  0
  9 37  1  0
 10 12  1  0
 10 38  1  0
 10 39  1  0
 11 15  1  0
 11 40  1  0
 11 41  1  0
 12 13  1  0
 13 14  1  0
 13 42  1  0
 13 43  1  0
 14 16  1  0
 14 44  1  0
 15 20  2  0
 15 45  1  0
 16 48  1  0
 16 49  1  0
 17 18  1  0
 17 19  1  0
 17 46  1  0
 17 47  1  0
 18 21  1  0
 18 50  1  0
 18 51  1  0
 19 23  1  0
 19 52  1  0
 19 53  1  0
 20 22  1  0
 20 54  1  0
 21 25  1  0
 21 55  1  0
 21 56  1  0
 22 24  1  0
 22 57  1  0
 22 58  1  0
 23 24  2  0
 23 59  1  0
 24 60  1  0
 25 62  1  0
 25 63  1  0
 25 64  1  0
 26 27  1  0
 27 65  1  0
 27 66  1  0
 27 67  1  0
M  END
> <Name>
5283266

> <OBJECTID>
9223372367570599950

> <PUBCHEM_COMPOUND_CID>
5283266

> <PUBCHEM_COMPOUND_CANONICALIZED>
1

> <PUBCHEM_CACTVS_COMPLEXITY>
426

> <PUBCHEM_CACTVS_HBOND_ACCEPTOR>
4

> <PUBCHEM_CACTVS_HBOND_DONOR>
1

> <PUBCHEM_CACTVS_ROTATABLE_BOND>
19

> <PUBCHEM_CACTVS_SUBSKEYS>
AAADcfB4OAAAAAAAAAAAAAAAAAAAAAAAAAAAAAAAAAAAAAAAAAAAGgAACAAACBSggAICCAAABgCIAKDSCAAAAAAgAAAICAEAAAgBEBYAAQACQAAEoAALAAOKyKCAAAAAAAAAAAAAAAAAAAAAAAAAAAAAAA==

> <PUBCHEM_IUPAC_OPENEYE_NAME>
[(12Z,15Z)-2-hydroxy-4-oxo-henicosa-12,15-dienyl] acetate

> <PUBCHEM_IUPAC_CAS_NAME>
acetic acid [(12Z,15Z)-2-hydroxy-4-oxoheneicosa-12,15-dienyl] ester

> <PUBCHEM_IUPAC_NAME_MARKUP>
[(12<I>Z</I>,15<I>Z</I>)-2-hydroxy-4-oxohenicosa-12,15-dienyl] acetate

> <PUBCHEM_IUPAC_NAME>
[(12Z,15Z)-2-hydroxy-4-oxohenicosa-12,15-dienyl] acetate

> <PUBCHEM_IUPAC_SYSTEMATIC_NAME>
[(12Z,15Z)-2-oxidanyl-4-oxidanylidene-henicosa-12,15-dienyl] ethanoate

> <PUBCHEM_IUPAC_TRADITIONAL_NAME>
acetic acid [(12Z,15Z)-2-hydroxy-4-keto-heneicosa-12,15-dienyl] ester

> <PUBCHEM_IUPAC_INCHI>
InChI=1S/C23H40O4/c1-3-4-5-6-7-8-9-10-11-12-13-14-15-16-17-18-22(25)19-23(26)20-27-21(2)24/h7-8,10-11,23,26H,3-6,9,12-20H2,1-2H3/b8-7-,11-10-

> <PUBCHEM_IUPAC_INCHIKEY>
IBDVBNUJEGRVQN-NQLNTKRDSA-N

> <PUBCHEM_XLOGP3_AA>
5.9

> <PUBCHEM_EXACT_MASS>
380.29265975

> <PUBCHEM_MOLECULAR_FORMULA>
C23H40O4

> <PUBCHEM_MOLECULAR_WEIGHT>
380.6

> <PUBCHEM_OPENEYE_CAN_SMILES>
CCCCCC=CCC=CCCCCCCCC(=O)CC(COC(=O)C)O

> <PUBCHEM_OPENEYE_ISO_SMILES>
CCCCC/C=C\C/C=C\CCCCCCCC(=O)CC(COC(=O)C)O

> <PUBCHEM_CACTVS_TPSA>
63.6

> <PUBCHEM_MONOISOTOPIC_WEIGHT>
380.29265975

> <PUBCHEM_TOTAL_CHARGE>
0

> <PUBCHEM_HEAVY_ATOM_COUNT>
27

> <PUBCHEM_ATOM_DEF_STEREO_COUNT>
0

> <PUBCHEM_ATOM_UDEF_STEREO_COUNT>
1

> <PUBCHEM_BOND_DEF_STEREO_COUNT>
2

> <PUBCHEM_BOND_UDEF_STEREO_COUNT>
0

> <PUBCHEM_ISOTOPIC_ATOM_COUNT>
0

> <PUBCHEM_COMPONENT_COUNT>
1

> <PUBCHEM_CACTVS_TAUTO_COUNT>
3

> <PUBCHEM_COORDINATE_TYPE>
1
5
255

> <PUBCHEM_BONDANNOTATIONS>
14  44  3

$$$$
5283468
  SciTegic09112316442D

 65 64  0  0  1  0            999 V2000
   14.1244   -2.2500    0.0000 O   0  0
   13.2583   -3.7500    0.0000 O   0  0
   15.8564   -1.2500    0.0000 O   0  0
   17.5885   -2.2500    0.0000 O   0  0
    3.7320    0.7500    0.0000 C   0  0
    9.7942   -2.7500    0.0000 C   0  0
    8.9282   -2.2500    0.0000 C   0  0
    4.5981    0.2500    0.0000 C   0  0
    3.7320    1.7500    0.0000 C   0  0
   10.6603   -2.2500    0.0000 C   0  0
    8.0622   -2.7500    0.0000 C   0  0
    4.5981   -0.7500    0.0000 C   0  0
    2.8660    2.2500    0.0000 C   0  0
   11.5263   -2.7500    0.0000 C   0  0
    7.1962   -2.2500    0.0000 C   0  0
    5.4641   -1.2500    0.0000 C   0  0
    2.8660    3.2500    0.0000 C   0  0
    6.3301   -2.7500    0.0000 C   0  0
    5.4641   -2.2500    0.0000 C   0  0
   12.3923   -2.2500    0.0000 C   0  0
    2.0000    3.7500    0.0000 C   0  0
   13.2583   -2.7500    0.0000 C   0  0
   14.9904   -2.7500    0.0000 C   0  0
   15.8564   -2.2500    0.0000 C   0  0
   16.7224   -2.7500    0.0000 C   0  0
    3.1215    0.8577    0.0000 H   0  0
    3.5200    0.1674    0.0000 H   0  0
    9.3957   -3.2250    0.0000 H   0  0
   10.1928   -3.2250    0.0000 H   0  0
    9.3267   -1.7750    0.0000 H   0  0
    8.5297   -1.7750    0.0000 H   0  0
    5.2087    0.1423    0.0000 H   0  0
    4.8101    0.8326    0.0000 H   0  0
    4.3426    1.6423    0.0000 H   0  0
    3.9441    2.3326    0.0000 H   0  0
   11.0588   -1.7750    0.0000 H   0  0
   10.2617   -1.7750    0.0000 H   0  0
    7.6636   -3.2250    0.0000 H   0  0
    8.4607   -3.2250    0.0000 H   0  0
    3.9875   -0.6423    0.0000 H   0  0
    4.3860   -1.3326    0.0000 H   0  0
    2.2554    2.3577    0.0000 H   0  0
    2.6540    1.6674    0.0000 H   0  0
   11.1278   -3.2250    0.0000 H   0  0
   11.9248   -3.2250    0.0000 H   0  0
    7.5947   -1.7750    0.0000 H   0  0
    6.7976   -1.7750    0.0000 H   0  0
    6.0747   -1.3577    0.0000 H   0  0
    5.6762   -0.6674    0.0000 H   0  0
    3.4766    3.1423    0.0000 H   0  0
    3.0781    3.8326    0.0000 H   0  0
   12.7908   -1.7750    0.0000 H   0  0
   11.9938   -1.7750    0.0000 H   0  0
    6.3301   -3.3700    0.0000 H   0  0
    4.9272   -2.5600    0.0000 H   0  0
    2.3100    4.2869    0.0000 H   0  0
    1.4631    4.0600    0.0000 H   0  0
    1.6900    3.2131    0.0000 H   0  0
   14.5919   -3.2250    0.0000 H   0  0
   15.3889   -3.2250    0.0000 H   0  0
   16.5925   -1.8250    0.0000 H   0  0
   16.3239   -3.2250    0.0000 H   0  0
   17.1210   -3.2250    0.0000 H   0  0
   16.3933   -0.9400    0.0000 H   0  0
   18.1254   -2.5600    0.0000 H   0  0
  1 22  1  0
  1 23  1  0
  2 22  2  0
  3 24  1  0
  3 64  1  0
  4 25  1  0
  4 65  1  0
  5  8  1  0
  5  9  1  0
  5 26  1  0
  5 27  1  0
  6  7  1  0
  6 10  1  0
  6 28  1  0
  6 29  1  0
  7 11  1  0
  7 30  1  0
  7 31  1  0
  8 12  1  0
  8 32  1  0
  8 33  1  0
  9 13  1  0
  9 34  1  0
  9 35  1  0
 10 14  1  0
 10 36  1  0
 10 37  1  0
 11 15  1  0
 11 38  1  0
 11 39  1  0
 12 16  1  0
 12 40  1  0
 12 41  1  0
 13 17  1  0
 13 42  1  0
 13 43  1  0
 14 20  1  0
 14 44  1  0
 14 45  1  0
 15 18  1  0
 15 46  1  0
 15 47  1  0
 16 19  1  0
 16 48  1  0
 16 49  1  0
 17 21  1  0
 17 50  1  0
 17 51  1  0
 18 19  2  0
 18 54  1  0
 19 55  1  0
 20 22  1  0
 20 52  1  0
 20 53  1  0
 21 56  1  0
 21 57  1  0
 21 58  1  0
 23 24  1  0
 23 59  1  0
 23 60  1  0
 24 25  1  0
 24 61  1  0
 25 62  1  0
 25 63  1  0
M  END
> <Name>
5283468

> <OBJECTID>
9223372371865567246

> <PUBCHEM_COMPOUND_CID>
5283468

> <PUBCHEM_COMPOUND_CANONICALIZED>
1

> <PUBCHEM_CACTVS_COMPLEXITY>
315

> <PUBCHEM_CACTVS_HBOND_ACCEPTOR>
4

> <PUBCHEM_CACTVS_HBOND_DONOR>
2

> <PUBCHEM_CACTVS_ROTATABLE_BOND>
19

> <PUBCHEM_CACTVS_SUBSKEYS>
AAADcfB4OAAAAAAAAAAAAAAAAAAAAAAAAAAAAAAAAAAAAAAAAAAAGgAACAAACBSggAICCAAABgCIACDSCAAAAAAgAAAICAEAAAgBEBIAAQACQAAFgAALAAOIyKCAAAAAAAAAAAAAAAAAAAAAAAAAAAAAAA==

> <PUBCHEM_IUPAC_OPENEYE_NAME>
2,3-dihydroxypropyl (Z)-octadec-9-enoate

> <PUBCHEM_IUPAC_CAS_NAME>
(Z)-9-octadecenoic acid 2,3-dihydroxypropyl ester

> <PUBCHEM_IUPAC_NAME_MARKUP>
2,3-dihydroxypropyl (<I>Z</I>)-octadec-9-enoate

> <PUBCHEM_IUPAC_NAME>
2,3-dihydroxypropyl (Z)-octadec-9-enoate

> <PUBCHEM_IUPAC_SYSTEMATIC_NAME>
2,3-bis(oxidanyl)propyl (Z)-octadec-9-enoate

> <PUBCHEM_IUPAC_TRADITIONAL_NAME>
(Z)-octadec-9-enoic acid glyceryl ester

> <PUBCHEM_IUPAC_INCHI>
InChI=1S/C21H40O4/c1-2-3-4-5-6-7-8-9-10-11-12-13-14-15-16-17-21(24)25-19-20(23)18-22/h9-10,20,22-23H,2-8,11-19H2,1H3/b10-9-

> <PUBCHEM_IUPAC_INCHIKEY>
RZRNAYUHWVFMIP-KTKRTIGZSA-N

> <PUBCHEM_XLOGP3>
6.5

> <PUBCHEM_EXACT_MASS>
356.29265975

> <PUBCHEM_MOLECULAR_FORMULA>
C21H40O4

> <PUBCHEM_MOLECULAR_WEIGHT>
356.5

> <PUBCHEM_OPENEYE_CAN_SMILES>
CCCCCCCCC=CCCCCCCCC(=O)OCC(CO)O

> <PUBCHEM_OPENEYE_ISO_SMILES>
CCCCCCCC/C=C\CCCCCCCC(=O)OCC(CO)O

> <PUBCHEM_CACTVS_TPSA>
66.8

> <PUBCHEM_MONOISOTOPIC_WEIGHT>
356.29265975

> <PUBCHEM_TOTAL_CHARGE>
0

> <PUBCHEM_HEAVY_ATOM_COUNT>
25

> <PUBCHEM_ATOM_DEF_STEREO_COUNT>
0

> <PUBCHEM_ATOM_UDEF_STEREO_COUNT>
1

> <PUBCHEM_BOND_DEF_STEREO_COUNT>
1

> <PUBCHEM_BOND_UDEF_STEREO_COUNT>
0

> <PUBCHEM_ISOTOPIC_ATOM_COUNT>
0

> <PUBCHEM_COMPONENT_COUNT>
1

> <PUBCHEM_CACTVS_TAUTO_COUNT>
1

> <PUBCHEM_COORDINATE_TYPE>
1
5
255

> <PUBCHEM_BONDANNOTATIONS>
24  61  3

$$$$
5283469
  SciTegic09112316442D

 63 62  0  0  1  0            999 V2000
   12.0632   -2.2500    0.0000 O   0  0
   11.1972   -3.7500    0.0000 O   0  0
   13.7953   -1.2500    0.0000 O   0  0
   15.5273   -2.2500    0.0000 O   0  0
    7.7331   -2.7500    0.0000 C   0  0
    6.8671   -2.2500    0.0000 C   0  0
    8.5991   -2.2500    0.0000 C   0  0
    6.0010   -2.7500    0.0000 C   0  0
    9.4651   -2.7500    0.0000 C   0  0
    5.1350   -2.2500    0.0000 C   0  0
   10.3312   -2.2500    0.0000 C   0  0
    4.2690   -2.7500    0.0000 C   0  0
    3.4030    1.7500    0.0000 C   0  0
    4.2690    2.2500    0.0000 C   0  0
   11.1972   -2.7500    0.0000 C   0  0
    3.4030    0.7500    0.0000 C   0  0
    4.2690    3.2500    0.0000 C   0  0
    3.4030   -2.2500    0.0000 C   0  0
    3.4030   -1.2500    0.0000 C   0  0
    2.5369    0.2500    0.0000 C   0  0
    2.5369   -0.7500    0.0000 C   0  0
   12.9292   -2.7500    0.0000 C   0  0
    5.1350    3.7500    0.0000 C   0  0
   13.7953   -2.2500    0.0000 C   0  0
   14.6613   -2.7500    0.0000 C   0  0
    7.3346   -3.2250    0.0000 H   0  0
    8.1316   -3.2250    0.0000 H   0  0
    7.2656   -1.7750    0.0000 H   0  0
    6.4685   -1.7750    0.0000 H   0  0
    8.9976   -1.7750    0.0000 H   0  0
    8.2006   -1.7750    0.0000 H   0  0
    5.6025   -3.2250    0.0000 H   0  0
    6.3996   -3.2250    0.0000 H   0  0
    9.0666   -3.2250    0.0000 H   0  0
    9.8637   -3.2250    0.0000 H   0  0
    5.5335   -1.7750    0.0000 H   0  0
    4.7365   -1.7750    0.0000 H   0  0
   10.7297   -1.7750    0.0000 H   0  0
    9.9326   -1.7750    0.0000 H   0  0
    4.2690   -3.3700    0.0000 H   0  0
    3.1909    2.3326    0.0000 H   0  0
    2.7924    1.6423    0.0000 H   0  0
    4.4810    1.6674    0.0000 H   0  0
    4.8796    2.3577    0.0000 H   0  0
    3.6150    0.1674    0.0000 H   0  0
    4.0135    0.8577    0.0000 H   0  0
    4.0569    3.8326    0.0000 H   0  0
    3.6584    3.1423    0.0000 H   0  0
    2.8660   -2.5600    0.0000 H   0  0
    4.0135   -1.3577    0.0000 H   0  0
    3.6150   -0.6674    0.0000 H   0  0
    2.0000    0.5600    0.0000 H   0  0
    2.0000   -1.0600    0.0000 H   0  0
   12.5307   -3.2250    0.0000 H   0  0
   13.3278   -3.2250    0.0000 H   0  0
    5.4450    3.2131    0.0000 H   0  0
    5.6720    4.0600    0.0000 H   0  0
    4.8250    4.2869    0.0000 H   0  0
   14.5314   -1.8250    0.0000 H   0  0
   14.2628   -3.2250    0.0000 H   0  0
   15.0598   -3.2250    0.0000 H   0  0
   14.3322   -0.9400    0.0000 H   0  0
   16.0643   -2.5600    0.0000 H   0  0
  1 15  1  0
  1 22  1  0
  2 15  2  0
  3 24  1  0
  3 62  1  0
  4 25  1  0
  4 63  1  0
  5  6  1  0
  5  7  1  0
  5 26  1  0
  5 27  1  0
  6  8  1  0
  6 28  1  0
  6 29  1  0
  7  9  1  0
  7 30  1  0
  7 31  1  0
  8 10  1  0
  8 32  1  0
  8 33  1  0
  9 11  1  0
  9 34  1  0
  9 35  1  0
 10 12  1  0
 10 36  1  0
 10 37  1  0
 11 15  1  0
 11 38  1  0
 11 39  1  0
 12 18  2  0
 12 40  1  0
 13 14  1  0
 13 16  1  0
 13 41  1  0
 13 42  1  0
 14 17  1  0
 14 43  1  0
 14 44  1  0
 16 20  1  0
 16 45  1  0
 16 46  1  0
 17 23  1  0
 17 47  1  0
 17 48  1  0
 18 19  1  0
 18 49  1  0
 19 21  1  0
 19 50  1  0
 19 51  1  0
 20 21  2  0
 20 52  1  0
 21 53  1  0
 22 24  1  0
 22 54  1  0
 22 55  1  0
 23 56  1  0
 23 57  1  0
 23 58  1  0
 24 25  1  0
 24 59  1  0
 25 60  1  0
 25 61  1  0
M  END
> <Name>
5283469

> <OBJECTID>
9223372376160534542

> <PUBCHEM_COMPOUND_CID>
5283469

> <PUBCHEM_COMPOUND_CANONICALIZED>
1

> <PUBCHEM_CACTVS_COMPLEXITY>
350

> <PUBCHEM_CACTVS_HBOND_ACCEPTOR>
4

> <PUBCHEM_CACTVS_HBOND_DONOR>
2

> <PUBCHEM_CACTVS_ROTATABLE_BOND>
18

> <PUBCHEM_CACTVS_SUBSKEYS>
AAADcfB4OAAAAAAAAAAAAAAAAAAAAAAAAAAAAAAAAAAAAAAAAAAAGgAACAAACBSggAICCAAABgCIACDSCAAAAAAgAAAICAEAAAgBEBIAAQACQAAFgAALAAOIyKCAAAAAAAAAAAAAAAAAAAAAAAAAAAAAAA==

> <PUBCHEM_IUPAC_OPENEYE_NAME>
2,3-dihydroxypropyl (9Z,12Z)-octadeca-9,12-dienoate

> <PUBCHEM_IUPAC_CAS_NAME>
(9Z,12Z)-octadeca-9,12-dienoic acid 2,3-dihydroxypropyl ester

> <PUBCHEM_IUPAC_NAME_MARKUP>
2,3-dihydroxypropyl (9<I>Z</I>,12<I>Z</I>)-octadeca-9,12-dienoate

> <PUBCHEM_IUPAC_NAME>
2,3-dihydroxypropyl (9Z,12Z)-octadeca-9,12-dienoate

> <PUBCHEM_IUPAC_SYSTEMATIC_NAME>
2,3-bis(oxidanyl)propyl (9Z,12Z)-octadeca-9,12-dienoate

> <PUBCHEM_IUPAC_TRADITIONAL_NAME>
(9Z,12Z)-octadeca-9,12-dienoic acid glyceryl ester

> <PUBCHEM_IUPAC_INCHI>
InChI=1S/C21H38O4/c1-2-3-4-5-6-7-8-9-10-11-12-13-14-15-16-17-21(24)25-19-20(23)18-22/h6-7,9-10,20,22-23H,2-5,8,11-19H2,1H3/b7-6-,10-9-

> <PUBCHEM_IUPAC_INCHIKEY>
WECGLUPZRHILCT-HZJYTTRNSA-N

> <PUBCHEM_XLOGP3>
5.8

> <PUBCHEM_EXACT_MASS>
354.27700969

> <PUBCHEM_MOLECULAR_FORMULA>
C21H38O4

> <PUBCHEM_MOLECULAR_WEIGHT>
354.5

> <PUBCHEM_OPENEYE_CAN_SMILES>
CCCCCC=CCC=CCCCCCCCC(=O)OCC(CO)O

> <PUBCHEM_OPENEYE_ISO_SMILES>
CCCCC/C=C\C/C=C\CCCCCCCC(=O)OCC(CO)O

> <PUBCHEM_CACTVS_TPSA>
66.8

> <PUBCHEM_MONOISOTOPIC_WEIGHT>
354.27700969

> <PUBCHEM_TOTAL_CHARGE>
0

> <PUBCHEM_HEAVY_ATOM_COUNT>
25

> <PUBCHEM_ATOM_DEF_STEREO_COUNT>
0

> <PUBCHEM_ATOM_UDEF_STEREO_COUNT>
1

> <PUBCHEM_BOND_DEF_STEREO_COUNT>
2

> <PUBCHEM_BOND_UDEF_STEREO_COUNT>
0

> <PUBCHEM_ISOTOPIC_ATOM_COUNT>
0

> <PUBCHEM_COMPONENT_COUNT>
1

> <PUBCHEM_CACTVS_TAUTO_COUNT>
1

> <PUBCHEM_COORDINATE_TYPE>
1
5
255

> <PUBCHEM_BONDANNOTATIONS>
24  59  3

$$$$
5317238
  SciTegic09112316443D

 27 27  0  0  0  0            999 V2000
    3.7738    0.4519    0.1304 O   0  0
   -4.3257   -1.5442    0.3628 O   0  0
   -4.8699    1.1659    0.0721 O   0  0
    3.0976   -1.7061   -0.3421 O   0  0
   -0.9576   -0.2100   -0.1258 C   0  0
   -2.0001   -1.1120    0.0871 C   0  0
   -1.2310    1.1501   -0.2721 C   0  0
   -3.3160   -0.6539    0.1537 C   0  0
   -3.5892    0.7061    0.0075 C   0  0
    0.4144   -0.6872   -0.1964 C   0  0
   -2.5467    1.6080   -0.2056 C   0  0
    1.5160    0.0749   -0.0160 C   0  0
    5.1452    0.0443    0.0848 C   0  0
    2.8636   -0.5322   -0.1025 C   0  0
    6.0257    1.2441    0.3623 C   0  0
   -1.7996   -2.1749    0.2040 H   0  0
   -0.4546    1.8860   -0.4595 H   0  0
    0.5298   -1.7495   -0.4010 H   0  0
   -2.7466    2.6696   -0.3254 H   0  0
    1.4679    1.1328    0.2161 H   0  0
    5.3221   -0.7278    0.8418 H   0  0
    5.3729   -0.3605   -0.9076 H   0  0
    7.0834    0.9678    0.3350 H   0  0
    5.8469    2.0323   -0.3765 H   0  0
    5.7967    1.6711    1.3443 H   0  0
   -5.1664   -1.0545    0.3806 H   0  0
   -4.8666    2.1308   -0.0499 H   0  0
  1 13  1  0
  1 14  1  0
  2  8  1  0
  2 26  1  0
  3  9  1  0
  3 27  1  0
  4 14  2  0
  5  6  2  0
  5  7  1  0
  5 10  1  0
  6  8  1  0
  6 16  1  0
  7 11  2  0
  7 17  1  0
  8  9  2  0
  9 11  1  0
 10 12  2  0
 10 18  1  0
 11 19  1  0
 12 14  1  0
 12 20  1  0
 13 15  1  0
 13 21  1  0
 13 22  1  0
 15 23  1  0
 15 24  1  0
 15 25  1  0
M  END
> <Name>
5317238

> <OBJECTID>
9223372380455501838

> <PUBCHEM_COMPOUND_CID>
5317238

> <PUBCHEM_CONFORMER_RMSD>
0.6

> <PUBCHEM_CONFORMER_DIVERSEORDER>
1
15
22
13
25
3
20
2
19
10
14
4
18
6
17
21
24
9
16
5
7
11
8
12
23

> <PUBCHEM_MMFF94_PARTIAL_CHARGES>
21
1 -0.43
10 -0.18
11 -0.15
12 -0.14
13 0.28
14 0.71
16 0.15
17 0.15
18 0.15
19 0.15
2 -0.53
20 0.15
26 0.45
27 0.45
3 -0.53
4 -0.57
5 0.03
6 -0.15
7 -0.15
8 0.08
9 0.08

> <PUBCHEM_EFFECTIVE_ROTOR_COUNT>
4

> <PUBCHEM_PHARMACOPHORE_FEATURES>
4
1 2 donor
1 3 donor
1 4 acceptor
6 5 6 7 8 9 11 rings

> <PUBCHEM_HEAVY_ATOM_COUNT>
15

> <PUBCHEM_ATOM_DEF_STEREO_COUNT>
0

> <PUBCHEM_ATOM_UDEF_STEREO_COUNT>
0

> <PUBCHEM_BOND_DEF_STEREO_COUNT>
1

> <PUBCHEM_BOND_UDEF_STEREO_COUNT>
0

> <PUBCHEM_ISOTOPIC_ATOM_COUNT>
0

> <PUBCHEM_COMPONENT_COUNT>
1

> <PUBCHEM_CACTVS_TAUTO_COUNT>
10

> <PUBCHEM_CONFORMER_ID>
51227600000001

> <PUBCHEM_MMFF94_ENERGY>
32.9292

> <PUBCHEM_FEATURE_SELFOVERLAP>
20.301

> <PUBCHEM_SHAPE_FINGERPRINT>
10014705 185 18260545598167537157
11128504 68 14405181807454177032
11132069 177 18260271815392649685
11401426 45 18114179726969226541
13214271 11 18413387640234705999
13897977 58 18410575097669508036
14123238 8 18408040728020933346
15048467 5 18201721730276385129
15196674 1 18410575059036050742
15501527 16 18413390933978996552
18522853 276 18409167705753947540
200 152 17632289065172041661
20510252 161 18341897350962291849
20645477 56 18410011022339677141
20645477 70 17631454471385647246
21637258 2 15285939017237006737
22485316 2 18409448063775306643
23272321 79 18336265747263563420
23402539 116 18261386771448586958
23402655 69 18060417997822255860
23557571 272 18271816743202821502
23559900 14 18339923706400693622
2916195 48 18271799177388175632
300161 21 18261105253516772517
3545911 37 18410857638167256356
4214541 1 18409730638479650060
42788 4 18411418427952444848
449060 50 18411136927053079740
5104073 3 18336549317672586434
542803 24 14764630819874606410
77779 3 18411139100185270478
9709674 26 18409175402240792630

> <PUBCHEM_SHAPE_MULTIPOLES>
285.22
11.96
1.55
0.63
12.28
0.01
0
2.69
1.44
-0.69
-0.02
0.04
0
0.52

> <PUBCHEM_SHAPE_SELFOVERLAP>
588.367

> <PUBCHEM_SHAPE_VOLUME>
163.8

> <PUBCHEM_COORDINATE_TYPE>
2
5
10

$$$$
5319562
  SciTegic09112316443D

 23 23  0  0  0  0            999 V2000
    4.8468    0.5292   -0.0996 O   0  0
   -3.8193    0.9153   -0.2056 O   0  0
   -3.4210   -1.3121    0.2610 O   0  0
    0.7907   -0.3333    0.0749 C   0  0
    1.2315    0.9810    0.2291 C   0  0
    1.7130   -1.3580   -0.1377 C   0  0
    2.5947    1.2707    0.1704 C   0  0
    3.0762   -1.0681   -0.1962 C   0  0
   -0.6307   -0.6357    0.1353 C   0  0
    3.5170    0.2462   -0.0422 C   0  0
   -1.6272    0.2586   -0.0478 C   0  0
   -3.0407   -0.1757    0.0281 C   0  0
   -5.2312    0.6820   -0.1697 C   0  0
    0.5524    1.8076    0.4163 H   0  0
    1.3884   -2.3883   -0.2615 H   0  0
   -0.8790   -1.6762    0.3343 H   0  0
    2.9262    2.2980    0.2962 H   0  0
    3.7900   -1.8703   -0.3625 H   0  0
   -1.4457    1.3032   -0.2747 H   0  0
    4.9713    1.4855    0.0265 H   0  0
   -5.5155   -0.0394   -0.9417 H   0  0
   -5.7376    1.6297   -0.3712 H   0  0
   -5.5312    0.3269    0.8209 H   0  0
  1 10  1  0
  1 20  1  0
  2 12  1  0
  2 13  1  0
  3 12  2  0
  4  5  2  0
  4  6  1  0
  4  9  1  0
  5  7  1  0
  5 14  1  0
  6  8  2  0
  6 15  1  0
  7 10  2  0
  7 17  1  0
  8 10  1  0
  8 18  1  0
  9 11  2  0
  9 16  1  0
 11 12  1  0
 11 19  1  0
 13 21  1  0
 13 22  1  0
 13 23  1  0
M  END
> <Name>
5319562

> <OBJECTID>
9223372384750469134

> <PUBCHEM_COMPOUND_CID>
5319562

> <PUBCHEM_CONFORMER_RMSD>
0.6

> <PUBCHEM_CONFORMER_DIVERSEORDER>
1
3
2

> <PUBCHEM_MMFF94_PARTIAL_CHARGES>
20
1 -0.53
10 0.08
11 -0.14
12 0.71
13 0.28
14 0.15
15 0.15
16 0.15
17 0.15
18 0.15
19 0.15
2 -0.43
20 0.45
3 -0.57
4 0.03
5 -0.15
6 -0.15
7 -0.15
8 -0.15
9 -0.18

> <PUBCHEM_EFFECTIVE_ROTOR_COUNT>
3

> <PUBCHEM_PHARMACOPHORE_FEATURES>
3
1 1 donor
1 3 acceptor
6 4 5 6 7 8 10 rings

> <PUBCHEM_HEAVY_ATOM_COUNT>
13

> <PUBCHEM_ATOM_DEF_STEREO_COUNT>
0

> <PUBCHEM_ATOM_UDEF_STEREO_COUNT>
0

> <PUBCHEM_BOND_DEF_STEREO_COUNT>
1

> <PUBCHEM_BOND_UDEF_STEREO_COUNT>
0

> <PUBCHEM_ISOTOPIC_ATOM_COUNT>
0

> <PUBCHEM_COMPONENT_COUNT>
1

> <PUBCHEM_CACTVS_TAUTO_COUNT>
2

> <PUBCHEM_CONFORMER_ID>
00512B8A00000001

> <PUBCHEM_MMFF94_ENERGY>
33.017

> <PUBCHEM_FEATURE_SELFOVERLAP>
15.223

> <PUBCHEM_SHAPE_FINGERPRINT>
10608611 8 18409727400032370769
11062470 55 18410575076078432074
11401426 45 18273210911262347552
11471102 20 18413387614222211374
12500047 106 18335980943476214755
12932764 1 17313654993330974651
13922767 16 18342453764075754256
14325111 11 18410855486087980107
14415576 193 18409452509277454820
14993402 34 16988843886534150436
17834072 33 18201432606321252647
18186145 218 18113894948941274991
190213 19 17632861931661753779
200 152 17918270952850744923
20279233 1 18333456438924524443
20606313 2 18412826884861963996
20645477 56 18260266339757766045
20645477 70 18200313216947118583
21119208 17 17775284962805262373
212847 35 18334575724492086244
22485316 2 18335419062700527347
23402539 116 18186513332511196990
23402655 69 18343864411444734245
23559900 14 18410575063832249506
3060560 45 17917997170281924326
3545911 37 18410857663952851793
4047638 21 18259706687917137402
4072396 5 18339630171477387650
4990 188 18059866073176536254
5104073 3 18408885148228987019
522135 26 18412825755027076358
77779 3 18410576193218373891

> <PUBCHEM_SHAPE_MULTIPOLES>
249.93
9.56
1.31
0.62
6.9
0.12
0
-1.9
-0.65
-0.35
0.02
0
0
0.28

> <PUBCHEM_SHAPE_SELFOVERLAP>
516.503

> <PUBCHEM_SHAPE_VOLUME>
143.9

> <PUBCHEM_COORDINATE_TYPE>
2
5
10

$$$$
5319879
  SciTegic09112316442D

 65 64  0  0  0  0            999 V2000
    5.1350   -1.6900    0.0000 O   0  0
    6.0010   -3.1900    0.0000 O   0  0
    2.5369   -2.1900    0.0000 O   0  0
    3.4030   -3.6900    0.0000 O   0  0
    9.4651   -2.1900    0.0000 C   0  0
   10.3312   -1.6900    0.0000 C   0  0
   15.5273    1.3100    0.0000 C   0  0
   14.6613    0.8100    0.0000 C   0  0
    8.5991   -1.6900    0.0000 C   0  0
   15.5273    2.3100    0.0000 C   0  0
   11.1972   -2.1900    0.0000 C   0  0
   14.6613   -0.1900    0.0000 C   0  0
    7.7331   -2.1900    0.0000 C   0  0
   16.3933    2.8100    0.0000 C   0  0
   12.0632   -1.6900    0.0000 C   0  0
   13.7953   -0.6900    0.0000 C   0  0
   16.3933    3.8100    0.0000 C   0  0
    6.8671   -1.6900    0.0000 C   0  0
   12.9292   -2.1900    0.0000 C   0  0
   13.7953   -1.6900    0.0000 C   0  0
   17.2594    4.3100    0.0000 C   0  0
    6.0010   -2.1900    0.0000 C   0  0
    4.2690   -2.1900    0.0000 C   0  0
    3.4030   -1.6900    0.0000 C   0  0
    4.2690   -3.1900    0.0000 C   0  0
    9.0666   -2.6650    0.0000 H   0  0
    9.8637   -2.6650    0.0000 H   0  0
   10.7297   -1.2150    0.0000 H   0  0
    9.9326   -1.2150    0.0000 H   0  0
   15.7394    0.7274    0.0000 H   0  0
   16.1379    1.4177    0.0000 H   0  0
   14.4492    1.3926    0.0000 H   0  0
   14.0507    0.7023    0.0000 H   0  0
    8.9976   -1.2150    0.0000 H   0  0
    8.2006   -1.2150    0.0000 H   0  0
   15.3153    2.8926    0.0000 H   0  0
   14.9167    2.2023    0.0000 H   0  0
   10.7987   -2.6650    0.0000 H   0  0
   11.5957   -2.6650    0.0000 H   0  0
   14.8733   -0.7726    0.0000 H   0  0
   15.2719   -0.0823    0.0000 H   0  0
    7.3346   -2.6650    0.0000 H   0  0
    8.1316   -2.6650    0.0000 H   0  0
   16.6054    2.2274    0.0000 H   0  0
   17.0039    2.9177    0.0000 H   0  0
   12.4617   -1.2150    0.0000 H   0  0
   11.6647   -1.2150    0.0000 H   0  0
   13.5832   -0.1074    0.0000 H   0  0
   13.1847   -0.7977    0.0000 H   0  0
   16.1813    4.3926    0.0000 H   0  0
   15.7828    3.7023    0.0000 H   0  0
    7.2656   -1.2150    0.0000 H   0  0
    6.4685   -1.2150    0.0000 H   0  0
   12.9292   -2.8100    0.0000 H   0  0
   14.3322   -2.0000    0.0000 H   0  0
   17.5694    3.7731    0.0000 H   0  0
   17.7963    4.6200    0.0000 H   0  0
   16.9494    4.8469    0.0000 H   0  0
    4.2690   -1.5700    0.0000 H   0  0
    3.8015   -1.2150    0.0000 H   0  0
    3.0044   -1.2150    0.0000 H   0  0
    4.4810   -3.7726    0.0000 H   0  0
    4.8796   -3.0823    0.0000 H   0  0
    2.0000   -1.8800    0.0000 H   0  0
    3.4030   -4.3100    0.0000 H   0  0
  1 22  1  0
  1 23  1  0
  2 22  2  0
  3 24  1  0
  3 64  1  0
  4 25  1  0
  4 65  1  0
  5  6  1  0
  5  9  1  0
  5 26  1  0
  5 27  1  0
  6 11  1  0
  6 28  1  0
  6 29  1  0
  7  8  1  0
  7 10  1  0
  7 30  1  0
  7 31  1  0
  8 12  1  0
  8 32  1  0
  8 33  1  0
  9 13  1  0
  9 34  1  0
  9 35  1  0
 10 14  1  0
 10 36  1  0
 10 37  1  0
 11 15  1  0
 11 38  1  0
 11 39  1  0
 12 16  1  0
 12 40  1  0
 12 41  1  0
 13 18  1  0
 13 42  1  0
 13 43  1  0
 14 17  1  0
 14 44  1  0
 14 45  1  0
 15 19  1  0
 15 46  1  0
 15 47  1  0
 16 20  1  0
 16 48  1  0
 16 49  1  0
 17 21  1  0
 17 50  1  0
 17 51  1  0
 18 22  1  0
 18 52  1  0
 18 53  1  0
 19 20  2  0
 19 54  1  0
 20 55  1  0
 21 56  1  0
 21 57  1  0
 21 58  1  0
 23 24  1  0
 23 25  1  0
 23 59  1  0
 24 60  1  0
 24 61  1  0
 25 62  1  0
 25 63  1  0
M  END
> <Name>
5319879

> <OBJECTID>
9223372389045436430

> <PUBCHEM_COMPOUND_CID>
5319879

> <PUBCHEM_COMPOUND_CANONICALIZED>
1

> <PUBCHEM_CACTVS_COMPLEXITY>
311

> <PUBCHEM_CACTVS_HBOND_ACCEPTOR>
4

> <PUBCHEM_CACTVS_HBOND_DONOR>
2

> <PUBCHEM_CACTVS_ROTATABLE_BOND>
19

> <PUBCHEM_CACTVS_SUBSKEYS>
AAADcfB4OAAAAAAAAAAAAAAAAAAAAAAAAAAAAAAAAAAAAAAAAAAAGgAACAAACBSggAICCAAABgCIACDSCAAAAAAgAAAICAEAAAgBEBIAAQACQAAFgAALAAOIyKCAAAAAAAAAAAAAAAAAAAAAAAAAAAAAAA==

> <PUBCHEM_IUPAC_OPENEYE_NAME>
[2-hydroxy-1-(hydroxymethyl)ethyl] (Z)-octadec-9-enoate

> <PUBCHEM_IUPAC_CAS_NAME>
(Z)-9-octadecenoic acid 1,3-dihydroxypropan-2-yl ester

> <PUBCHEM_IUPAC_NAME_MARKUP>
1,3-dihydroxypropan-2-yl (<I>Z</I>)-octadec-9-enoate

> <PUBCHEM_IUPAC_NAME>
1,3-dihydroxypropan-2-yl (Z)-octadec-9-enoate

> <PUBCHEM_IUPAC_SYSTEMATIC_NAME>
1,3-bis(oxidanyl)propan-2-yl (Z)-octadec-9-enoate

> <PUBCHEM_IUPAC_TRADITIONAL_NAME>
(Z)-octadec-9-enoic acid (2-hydroxy-1-methylol-ethyl) ester

> <PUBCHEM_IUPAC_INCHI>
InChI=1S/C21H40O4/c1-2-3-4-5-6-7-8-9-10-11-12-13-14-15-16-17-21(24)25-20(18-22)19-23/h9-10,20,22-23H,2-8,11-19H2,1H3/b10-9-

> <PUBCHEM_IUPAC_INCHIKEY>
UPWGQKDVAURUGE-KTKRTIGZSA-N

> <PUBCHEM_XLOGP3_AA>
6.3

> <PUBCHEM_EXACT_MASS>
356.29265975

> <PUBCHEM_MOLECULAR_FORMULA>
C21H40O4

> <PUBCHEM_MOLECULAR_WEIGHT>
356.5

> <PUBCHEM_OPENEYE_CAN_SMILES>
CCCCCCCCC=CCCCCCCCC(=O)OC(CO)CO

> <PUBCHEM_OPENEYE_ISO_SMILES>
CCCCCCCC/C=C\CCCCCCCC(=O)OC(CO)CO

> <PUBCHEM_CACTVS_TPSA>
66.8

> <PUBCHEM_MONOISOTOPIC_WEIGHT>
356.29265975

> <PUBCHEM_TOTAL_CHARGE>
0

> <PUBCHEM_HEAVY_ATOM_COUNT>
25

> <PUBCHEM_ATOM_DEF_STEREO_COUNT>
0

> <PUBCHEM_ATOM_UDEF_STEREO_COUNT>
0

> <PUBCHEM_BOND_DEF_STEREO_COUNT>
1

> <PUBCHEM_BOND_UDEF_STEREO_COUNT>
0

> <PUBCHEM_ISOTOPIC_ATOM_COUNT>
0

> <PUBCHEM_COMPONENT_COUNT>
1

> <PUBCHEM_CACTVS_TAUTO_COUNT>
1

> <PUBCHEM_COORDINATE_TYPE>
1
5
255

$$$$
5323592
  SciTegic09112316442D

 50 51  0  0  1  0            999 V2000
    5.1350   -0.1550    0.0000 O   0  0
    6.8671   -0.1550    0.0000 O   0  0
    5.1350   -3.1550    0.0000 O   0  0
    3.4030   -2.1550    0.0000 O   0  0
    6.8671   -2.1550    0.0000 O   0  0
    2.5369   -0.6550    0.0000 O   0  0
    8.5991   -0.1550    0.0000 O   0  0
    8.5991    2.8450    0.0000 O   0  0
    5.1350    2.8450    0.0000 O   0  0
    5.1350   -2.1550    0.0000 C   0  0
    4.2690   -1.6550    0.0000 C   0  0
    6.0010   -1.6550    0.0000 C   0  0
    4.2690   -0.6550    0.0000 C   0  0
    6.0010   -0.6550    0.0000 C   0  0
    3.4030   -0.1550    0.0000 C   0  0
    6.8671    0.8450    0.0000 C   0  0
    7.7331    1.3450    0.0000 C   0  0
    9.4651    1.3450    0.0000 C   0  0
    8.5991    0.8450    0.0000 C   0  0
    6.0010    1.3450    0.0000 C   0  0
   10.3312    0.8450    0.0000 C   0  0
    7.7331    2.3450    0.0000 C   0  0
    9.4651    2.3450    0.0000 C   0  0
    6.0010    2.3450    0.0000 C   0  0
    6.8671    2.8450    0.0000 C   0  0
   11.1972    1.3450    0.0000 C   0  0
    4.5981   -2.4650    0.0000 H   0  0
    4.2690   -2.2750    0.0000 H   0  0
    6.0010   -2.2750    0.0000 H   0  0
    4.2690   -0.0350    0.0000 H   0  0
    6.0010   -0.0350    0.0000 H   0  0
    3.8015    0.3199    0.0000 H   0  0
    3.0044    0.3199    0.0000 H   0  0
    4.5981   -3.4650    0.0000 H   0  0
    3.4030   -2.7750    0.0000 H   0  0
    6.8671   -2.7750    0.0000 H   0  0
   10.0021    1.6550    0.0000 H   0  0
    2.0000   -0.3450    0.0000 H   0  0
    5.4641    1.0350    0.0000 H   0  0
    9.9326    0.3701    0.0000 H   0  0
   10.7297    0.3701    0.0000 H   0  0
   10.0851    2.3450    0.0000 H   0  0
    9.4651    2.9650    0.0000 H   0  0
    8.8451    2.3450    0.0000 H   0  0
    6.8671    3.4650    0.0000 H   0  0
   11.5072    0.8081    0.0000 H   0  0
   11.7341    1.6550    0.0000 H   0  0
   10.8872    1.8819    0.0000 H   0  0
    8.5991    3.4650    0.0000 H   0  0
    5.1350    3.4650    0.0000 H   0  0
  1 13  1  0
  1 14  1  0
  2 14  1  0
  2 16  1  0
  3 10  1  0
  3 34  1  0
  4 11  1  0
  4 35  1  0
  5 12  1  0
  5 36  1  0
  6 15  1  0
  6 38  1  0
  7 19  2  0
  8 22  1  0
  8 49  1  0
  9 24  1  0
  9 50  1  0
 10 11  1  0
 10 12  1  0
 10 27  1  0
 11 13  1  0
 11 28  1  0
 12 14  1  0
 12 29  1  0
 13 15  1  0
 13 30  1  0
 14 31  1  0
 15 32  1  0
 15 33  1  0
 16 17  1  0
 16 20  2  0
 17 19  1  0
 17 22  2  0
 18 19  1  0
 18 21  1  0
 18 23  1  0
 18 37  1  0
 20 24  1  0
 20 39  1  0
 21 26  1  0
 21 40  1  0
 21 41  1  0
 22 25  1  0
 23 42  1  0
 23 43  1  0
 23 44  1  0
 24 25  2  0
 25 45  1  0
 26 46  1  0
 26 47  1  0
 26 48  1  0
M  END
> <Name>
5323592

> <OBJECTID>
9223372393340403726

> <PUBCHEM_COMPOUND_CID>
5323592

> <PUBCHEM_COMPOUND_CANONICALIZED>
1

> <PUBCHEM_CACTVS_COMPLEXITY>
473

> <PUBCHEM_CACTVS_HBOND_ACCEPTOR>
9

> <PUBCHEM_CACTVS_HBOND_DONOR>
6

> <PUBCHEM_CACTVS_ROTATABLE_BOND>
6

> <PUBCHEM_CACTVS_SUBSKEYS>
AAADceB4PAAAAAAAAAAAAAAAAAAAAAAAAAA0QAAAAAAAAAABAAAAGgAACAAADRSwmAMyDoAABgCIAqBSAAACCAAkIAAAiAEGCMgdNzaGNRqieWCl4BUPuQfI7OzOIAAACAAIAABAAAAQABAAAAAAAAAAAA==

> <PUBCHEM_IUPAC_OPENEYE_NAME>
1-[2,4-dihydroxy-6-[3,4,5-trihydroxy-6-(hydroxymethyl)tetrahydropyran-2-yl]oxy-phenyl]-2-methyl-butan-1-one

> <PUBCHEM_IUPAC_CAS_NAME>
1-[2,4-dihydroxy-6-[[3,4,5-trihydroxy-6-(hydroxymethyl)-2-oxanyl]oxy]phenyl]-2-methyl-1-butanone

> <PUBCHEM_IUPAC_NAME_MARKUP>
1-[2,4-dihydroxy-6-[3,4,5-trihydroxy-6-(hydroxymethyl)oxan-2-yl]oxyphenyl]-2-methylbutan-1-one

> <PUBCHEM_IUPAC_NAME>
1-[2,4-dihydroxy-6-[3,4,5-trihydroxy-6-(hydroxymethyl)oxan-2-yl]oxyphenyl]-2-methylbutan-1-one

> <PUBCHEM_IUPAC_SYSTEMATIC_NAME>
1-[2-[6-(hydroxymethyl)-3,4,5-tris(oxidanyl)oxan-2-yl]oxy-4,6-bis(oxidanyl)phenyl]-2-methyl-butan-1-one

> <PUBCHEM_IUPAC_TRADITIONAL_NAME>
1-[2,4-dihydroxy-6-(3,4,5-trihydroxy-6-methylol-tetrahydropyran-2-yl)oxy-phenyl]-2-methyl-butan-1-one

> <PUBCHEM_IUPAC_INCHI>
InChI=1S/C17H24O9/c1-3-7(2)13(21)12-9(20)4-8(19)5-10(12)25-17-16(24)15(23)14(22)11(6-18)26-17/h4-5,7,11,14-20,22-24H,3,6H2,1-2H3

> <PUBCHEM_IUPAC_INCHIKEY>
MMJKSUJYDHTZJV-UHFFFAOYSA-N

> <PUBCHEM_XLOGP3_AA>
0.7

> <PUBCHEM_EXACT_MASS>
372.14203234

> <PUBCHEM_MOLECULAR_FORMULA>
C17H24O9

> <PUBCHEM_MOLECULAR_WEIGHT>
372.4

> <PUBCHEM_OPENEYE_CAN_SMILES>
CCC(C)C(=O)C1=C(C=C(C=C1OC2C(C(C(C(O2)CO)O)O)O)O)O

> <PUBCHEM_OPENEYE_ISO_SMILES>
CCC(C)C(=O)C1=C(C=C(C=C1OC2C(C(C(C(O2)CO)O)O)O)O)O

> <PUBCHEM_CACTVS_TPSA>
157

> <PUBCHEM_MONOISOTOPIC_WEIGHT>
372.14203234

> <PUBCHEM_TOTAL_CHARGE>
0

> <PUBCHEM_HEAVY_ATOM_COUNT>
26

> <PUBCHEM_ATOM_DEF_STEREO_COUNT>
0

> <PUBCHEM_ATOM_UDEF_STEREO_COUNT>
6

> <PUBCHEM_BOND_DEF_STEREO_COUNT>
0

> <PUBCHEM_BOND_UDEF_STEREO_COUNT>
0

> <PUBCHEM_ISOTOPIC_ATOM_COUNT>
0

> <PUBCHEM_COMPONENT_COUNT>
1

> <PUBCHEM_CACTVS_TAUTO_COUNT>
-1

> <PUBCHEM_COORDINATE_TYPE>
1
5
255

> <PUBCHEM_BONDANNOTATIONS>
13  15  3
16  17  8
16  20  8
17  22  8
18  23  3
14  2  3
20  24  8
22  25  8
24  25  8
10  3  3
11  4  3
12  5  3

$$$$
6443019
  SciTegic09112316443D

 34 35  0  0  0  0            999 V2000
    7.1850   -1.0966   -0.0310 O   0  0
   -0.5496    2.2507    0.1285 O   0  0
   -4.2792   -2.9050    0.4274 O   0  0
   -2.3334   -2.4639   -0.6616 O   0  0
   -1.4963    0.1061   -0.0030 N   0  0
   -2.8876    0.3726   -0.0028 C   0  0
   -3.7995   -0.6680   -0.0706 C   0  0
   -3.3041    1.6926    0.0668 C   0  0
    3.3558    0.5029    0.0466 C   0  0
   -5.1646   -0.3816   -0.0690 C   0  0
   -4.6693    1.9791    0.0685 C   0  0
   -5.5995    0.9419    0.0006 C   0  0
    2.0143    1.0638    0.0743 C   0  0
   -0.4615    1.0305    0.0597 C   0  0
    3.5606   -0.8333    0.3905 C   0  0
    4.4379    1.3016   -0.3236 C   0  0
    0.8681    0.3472    0.0355 C   0  0
    4.8476   -1.3707    0.3643 C   0  0
    5.7248    0.7641   -0.3498 C   0  0
    5.9296   -0.5721   -0.0058 C   0  0
   -3.3791   -2.0617   -0.1457 C   0  0
   -2.6568    2.5542    0.1214 H   0  0
   -1.2425   -0.8770   -0.0525 H   0  0
   -5.9151   -1.1651   -0.1349 H   0  0
   -5.0097    3.0092    0.1217 H   0  0
   -6.6623    1.1655   -0.0013 H   0  0
    1.9642    2.1495    0.1197 H   0  0
    2.7528   -1.4875    0.7050 H   0  0
    4.2978    2.3448   -0.5963 H   0  0
    0.8667   -0.7346   -0.0374 H   0  0
    4.9951   -2.4119    0.6388 H   0  0
    6.5638    1.3910   -0.6392 H   0  0
    7.1415   -2.0313    0.2349 H   0  0
   -3.9892   -3.8406    0.3730 H   0  0
  1 20  1  0
  1 33  1  0
  2 14  2  0
  3 21  1  0
  3 34  1  0
  4 21  2  0
  5  6  1  0
  5 14  1  0
  5 23  1  0
  6  7  1  0
  6  8  2  0
  7 10  2  0
  7 21  1  0
  8 11  1  0
  8 22  1  0
  9 13  1  0
  9 15  2  0
  9 16  1  0
 10 12  1  0
 10 24  1  0
 11 12  2  0
 11 25  1  0
 12 26  1  0
 13 17  2  0
 13 27  1  0
 14 17  1  0
 15 18  1  0
 15 28  1  0
 16 19  2  0
 16 29  1  0
 17 30  1  0
 18 20  2  0
 18 31  1  0
 19 20  1  0
 19 32  1  0
M  END
> <Name>
6443019

> <OBJECTID>
9223372397635371022

> <PUBCHEM_COMPOUND_CID>
6443019

> <PUBCHEM_CONFORMER_RMSD>
0.8

> <PUBCHEM_CONFORMER_DIVERSEORDER>
1
8
6
4
7
5
3
2

> <PUBCHEM_MMFF94_PARTIAL_CHARGES>
34
1 -0.53
10 -0.15
11 -0.15
12 -0.15
13 -0.18
14 0.62
15 -0.15
16 -0.15
17 -0.14
18 -0.15
19 -0.15
2 -0.57
20 0.08
21 0.63
22 0.15
23 0.37
24 0.15
25 0.15
26 0.15
27 0.15
28 0.15
29 0.15
3 -0.65
30 0.15
31 0.15
32 0.15
33 0.45
34 0.5
4 -0.57
5 -0.55
6 0.12
7 0.09
8 -0.15
9 0.03

> <PUBCHEM_EFFECTIVE_ROTOR_COUNT>
5

> <PUBCHEM_PHARMACOPHORE_FEATURES>
8
1 1 donor
1 2 acceptor
1 3 acceptor
1 4 acceptor
1 5 donor
3 3 4 21 anion
6 6 7 8 10 11 12 rings
6 9 15 16 18 19 20 rings

> <PUBCHEM_HEAVY_ATOM_COUNT>
21

> <PUBCHEM_ATOM_DEF_STEREO_COUNT>
0

> <PUBCHEM_ATOM_UDEF_STEREO_COUNT>
0

> <PUBCHEM_BOND_DEF_STEREO_COUNT>
1

> <PUBCHEM_BOND_UDEF_STEREO_COUNT>
0

> <PUBCHEM_ISOTOPIC_ATOM_COUNT>
0

> <PUBCHEM_COMPONENT_COUNT>
1

> <PUBCHEM_CACTVS_TAUTO_COUNT>
6

> <PUBCHEM_CONFORMER_ID>
0062500B00000001

> <PUBCHEM_MMFF94_ENERGY>
68.2042

> <PUBCHEM_FEATURE_SELFOVERLAP>
40.654

> <PUBCHEM_SHAPE_FINGERPRINT>
10411042 1 18122906701853620207
10595046 47 18334860571197563460
11045515 52 18113052727472603228
11045977 3 17988636419694374216
11315181 36 17418092122317086937
11405975 8 18343301500220281169
11524674 6 17346313791289670991
11796584 16 18342177743902753134
12107183 9 17616249187387534688
12236239 1 18186804681691821020
12516196 113 18060134340912949480
12616971 3 17458350749247652188
12788726 201 17702381741441747113
12916748 109 9007057989156619936
13167823 11 18408602591215889898
13288520 33 18411418415025676245
14251764 18 18343304769312527945
14341114 176 18411984675845228736
14420673 8 18411421682868177431
14461889 52 18268702974345853704
15042514 8 18337112393229818723
15183329 4 18335416846391758298
15196674 1 18410011065600605930
15250474 111 18262222379027839898
15348495 7 17988071296803798056
15537594 2 17895191078196652362
17492 89 18120655996638910355
17834072 33 18335140903923885356
17844677 252 18411987978854589848
17857418 61 18410571773765585210
19489759 90 17275385374482376065
20681677 155 18334574629407184609
21267235 1 18336269020181279579
220451 1 18260835877922000496
22950370 63 18408604781617731300
23035841 295 18409167697021367368
23402539 116 18408039611166140100
23536379 177 18408323259412302232
23559900 14 18270391806203880513
26918003 58 18131632274805027208
3004659 81 18334012775113437632
335352 9 18411134737042024917
338550 245 18408889555424958710
4073 2 18113904900881634258
4214541 1 18410855460244524641
5104073 3 18343581867327311088
559249 180 18410290290035416063
59755656 215 18271248205956105150
59755656 520 16877946031260069787
6327066 14 17827068516839266957
67856867 119 18263085564675723116
7226269 152 17846219904559878289
7495541 125 18059854004529781792
999808 66 17895488002845836875

> <PUBCHEM_SHAPE_MULTIPOLES>
403.71
16.95
2.39
0.65
15.4
1.1
0.01
2.72
0.26
-2.83
0
0.05
0.04
-0.42

> <PUBCHEM_SHAPE_SELFOVERLAP>
869.874

> <PUBCHEM_SHAPE_VOLUME>
220.2

> <PUBCHEM_COORDINATE_TYPE>
2
5
10

$$$$
6918840
  SciTegic09112316442D

137144  0  0  1  0            999 V2000
    8.5991   -2.6210    0.0000 O   0  0
   11.8999    4.2290    0.0000 O   0  0
   10.2098    4.6079    0.0000 O   0  0
    6.8671   -2.6210    0.0000 O   0  0
    8.5991   -4.6210    0.0000 O   0  0
    6.8671   -5.6210    0.0000 O   0  0
   11.3830    5.8821    0.0000 O   0  0
    5.1350   -4.6210    0.0000 O   0  0
   13.8088    4.8259    0.0000 O   0  0
    9.4651   -3.1210    0.0000 O   0  0
    5.1350   -1.6210    0.0000 O   0  0
   14.2463    6.7774    0.0000 O   0  0
    5.1350   -5.6210    0.0000 O   0  0
   12.7749    8.1321    0.0000 O   0  0
   10.3312   -5.6210    0.0000 O   0  0
    6.8671   -7.6210    0.0000 O   0  0
   12.0632   -4.6210    0.0000 O   0  0
   11.0848    8.5110    0.0000 O   0  0
   12.0632   -2.6210    0.0000 O   0  0
    5.1350   -8.6210    0.0000 O   0  0
    3.4030   -7.6210    0.0000 O   0  0
   11.1972   -1.1210    0.0000 O   0  0
    2.5369   -6.1210    0.0000 O   0  0
    8.5991    0.6260    0.0000 C   0  0  2  0  0  0
    9.5740    0.4035    0.0000 C   0  0  2  0  0  0
   10.2942    1.1561    0.0000 C   0  0  1  0  0  0
    9.9949    2.1538    0.0000 C   0  0  2  0  0  0
    8.9651   -0.4975    0.0000 C   0  0
    8.5991   -1.6210    0.0000 C   0  0  2  0  0  0
    8.2768    1.6165    0.0000 C   0  0
   10.0079   -0.4975    0.0000 C   0  0
    7.8173    0.0025    0.0000 C   0  0
    8.9794    2.3855    0.0000 C   0  0
   10.7267    2.9548    0.0000 C   0  0  2  0  0  0
   11.3461    0.8902    0.0000 C   0  0
    9.5740   -1.3984    0.0000 C   0  0
    7.8173   -0.9975    0.0000 C   0  0
   10.8919    0.3543    0.0000 C   0  0
   11.7845    2.7133    0.0000 C   0  0
   12.0963    1.6741    0.0000 C   0  0
    9.9910    3.6321    0.0000 C   0  0
   10.9455    3.9306    0.0000 C   0  0
    6.9163   -1.4313    0.0000 C   0  0
    7.7331   -3.1210    0.0000 C   0  0  2  0  0  0
    7.7331   -4.1210    0.0000 C   0  0  1  0  0  0
    6.8671   -4.6210    0.0000 C   0  0  2  0  0  0
   12.1187    5.2048    0.0000 C   0  0  2  0  0  0
    6.0010   -3.1210    0.0000 C   0  0  1  0  0  0
    6.0010   -4.1210    0.0000 C   0  0  1  0  0  0
   13.0731    5.5032    0.0000 C   0  0  1  0  0  0
    5.1350   -2.6210    0.0000 C   0  0
    9.4651   -4.1210    0.0000 C   0  0  2  0  0  0
   13.2918    6.4790    0.0000 C   0  0  2  0  0  0
   11.6018    6.8579    0.0000 C   0  0  1  0  0  0
   12.5562    7.1563    0.0000 C   0  0  1  0  0  0
    6.0010   -6.1210    0.0000 C   0  0  2  0  0  0
   10.3312   -4.6210    0.0000 C   0  0  1  0  0  0
    6.0010   -7.1210    0.0000 C   0  0  1  0  0  0
   10.8661    7.5352    0.0000 C   0  0
   11.1972   -4.1210    0.0000 C   0  0  2  0  0  0
   10.3312   -2.6210    0.0000 C   0  0  1  0  0  0
   11.1972   -3.1210    0.0000 C   0  0  1  0  0  0
    5.1350   -7.6210    0.0000 C   0  0  2  0  0  0
    4.2690   -6.1210    0.0000 C   0  0  1  0  0  0
    4.2690   -7.1210    0.0000 C   0  0  1  0  0  0
   10.3312   -1.6210    0.0000 C   0  0
    3.4030   -5.6210    0.0000 C   0  0
   10.4027    0.2144    0.0000 H   0  0
    9.7412    2.9650    0.0000 H   0  0
    9.4666   -0.8620    0.0000 H   0  0
    9.4666   -0.1329    0.0000 H   0  0
    7.8974    2.1069    0.0000 H   0  0
    7.7287    1.3266    0.0000 H   0  0
   10.4927   -0.8840    0.0000 H   0  0
   10.4927   -0.1109    0.0000 H   0  0
    7.5483    0.5611    0.0000 H   0  0
    7.2128   -0.1354    0.0000 H   0  0
    9.2187    2.9575    0.0000 H   0  0
    8.4568    2.7192    0.0000 H   0  0
   11.0936    0.3240    0.0000 H   0  0
   11.8608    0.5445    0.0000 H   0  0
    9.5740   -2.0184    0.0000 H   0  0
   10.1785   -1.5364    0.0000 H   0  0
   10.3948   -0.0162    0.0000 H   0  0
   11.2624   -0.1428    0.0000 H   0  0
   11.3890    0.7248    0.0000 H   0  0
   12.4001    2.7873    0.0000 H   0  0
   11.8170    3.3325    0.0000 H   0  0
   12.4643    1.1751    0.0000 H   0  0
   12.6509    1.9513    0.0000 H   0  0
   10.4110    4.0882    0.0000 H   0  0
    9.5349    4.0521    0.0000 H   0  0
    9.5711    3.1760    0.0000 H   0  0
    6.4040   -1.0821    0.0000 H   0  0
    6.8700   -2.0496    0.0000 H   0  0
    7.7331   -2.5010    0.0000 H   0  0
    7.7331   -4.7410    0.0000 H   0  0
    6.3301   -4.9310    0.0000 H   0  0
   12.5748    4.7848    0.0000 H   0  0
    6.0010   -2.5010    0.0000 H   0  0
    5.4641   -3.8110    0.0000 H   0  0
   13.6648    5.6882    0.0000 H   0  0
    4.5244   -2.5133    0.0000 H   0  0
    4.9230   -3.2036    0.0000 H   0  0
    9.4651   -4.7410    0.0000 H   0  0
   13.4275    7.0840    0.0000 H   0  0
   11.0100    6.6728    0.0000 H   0  0
    4.5981   -4.3110    0.0000 H   0  0
   12.1001    7.5763    0.0000 H   0  0
    6.5380   -6.4310    0.0000 H   0  0
   10.8681   -4.9310    0.0000 H   0  0
   14.4005    5.0109    0.0000 H   0  0
    4.5981   -1.3110    0.0000 H   0  0
    6.0010   -7.7410    0.0000 H   0  0
   11.1972   -4.7410    0.0000 H   0  0
   10.2938    7.7738    0.0000 H   0  0
   10.5317    7.0131    0.0000 H   0  0
    9.7942   -2.3110    0.0000 H   0  0
   14.3819    7.3824    0.0000 H   0  0
   11.7341   -3.4310    0.0000 H   0  0
    4.5981   -7.9310    0.0000 H   0  0
   13.3667    8.3171    0.0000 H   0  0
    4.2690   -5.5010    0.0000 H   0  0
    4.2690   -7.7410    0.0000 H   0  0
   10.8681   -5.9310    0.0000 H   0  0
   10.1191   -1.0384    0.0000 H   0  0
    9.7206   -1.7286    0.0000 H   0  0
    7.4040   -7.3110    0.0000 H   0  0
   12.6002   -4.3110    0.0000 H   0  0
   10.6287    8.9310    0.0000 H   0  0
    3.8015   -5.1460    0.0000 H   0  0
    3.0044   -5.1460    0.0000 H   0  0
   12.0632   -2.0010    0.0000 H   0  0
    4.5981   -8.9310    0.0000 H   0  0
    3.4030   -8.2410    0.0000 H   0  0
   11.1972   -0.5010    0.0000 H   0  0
    2.0000   -5.8110    0.0000 H   0  0
 29  1  1  6
 44  1  1  1
  2 42  1  0
 47  2  1  6
  3 42  2  0
  4 44  1  0
  4 48  1  0
 45  5  1  6
 52  5  1  6
 46  6  1  1
 56  6  1  1
  7 47  1  0
  7 54  1  0
 49  8  1  6
  8108  1  0
 50  9  1  1
  9112  1  0
 10 52  1  0
 10 61  1  0
 11 51  1  0
 11113  1  0
 53 12  1  6
 12119  1  0
 13 56  1  0
 13 64  1  0
 55 14  1  1
 14122  1  0
 57 15  1  1
 15125  1  0
 58 16  1  6
 16128  1  0
 60 17  1  6
 17129  1  0
 18 59  1  0
 18130  1  0
 62 19  1  1
 19133  1  0
 63 20  1  1
 20134  1  0
 65 21  1  6
 21135  1  0
 22 66  1  0
 22136  1  0
 23 67  1  0
 23137  1  0
 24 25  1  0
 24 28  1  0
 24 30  1  6
 24 32  1  0
 25 26  1  0
 25 31  1  0
 25 68  1  1
 26 27  1  0
 26 35  1  0
 26 38  1  6
 27 33  1  0
 27 34  1  0
 27 69  1  1
 28 29  1  0
 28 70  1  0
 28 71  1  0
 29 36  1  0
 29 37  1  0
 30 33  1  0
 30 72  1  0
 30 73  1  0
 31 36  1  0
 31 74  1  0
 31 75  1  0
 32 37  1  0
 32 76  1  0
 32 77  1  0
 33 78  1  0
 33 79  1  0
 34 39  1  0
 34 41  1  1
 34 42  1  0
 35 40  1  0
 35 80  1  0
 35 81  1  0
 36 82  1  0
 36 83  1  0
 37 43  2  0
 38 84  1  0
 38 85  1  0
 38 86  1  0
 39 40  1  0
 39 87  1  0
 39 88  1  0
 40 89  1  0
 40 90  1  0
 41 91  1  0
 41 92  1  0
 41 93  1  0
 43 94  1  0
 43 95  1  0
 44 45  1  0
 44 96  1  0
 45 46  1  0
 45 97  1  0
 46 49  1  0
 46 98  1  0
 47 50  1  0
 47 99  1  0
 48 49  1  0
 48 51  1  1
 48100  1  0
 49101  1  0
 50 53  1  0
 50102  1  0
 51103  1  0
 51104  1  0
 52 57  1  0
 52105  1  0
 53 55  1  0
 53106  1  0
 54 55  1  0
 54 59  1  6
 54107  1  0
 55109  1  0
 56 58  1  0
 56110  1  0
 57 60  1  0
 57111  1  0
 58 63  1  0
 58114  1  0
 59116  1  0
 59117  1  0
 60 62  1  0
 60115  1  0
 61 62  1  0
 61 66  1  6
 61118  1  0
 62120  1  0
 63 65  1  0
 63121  1  0
 64 65  1  0
 64 67  1  1
 64123  1  0
 65124  1  0
 66126  1  0
 66127  1  0
 67131  1  0
 67132  1  0
M  END
> <Name>
6918840

> <OBJECTID>
9223372401930338318

> <PUBCHEM_COMPOUND_CID>
6918840

> <PUBCHEM_COMPOUND_CANONICALIZED>
1

> <PUBCHEM_CACTVS_COMPLEXITY>
1760

> <PUBCHEM_CACTVS_HBOND_ACCEPTOR>
23

> <PUBCHEM_CACTVS_HBOND_DONOR>
14

> <PUBCHEM_CACTVS_ROTATABLE_BOND>
13

> <PUBCHEM_CACTVS_SUBSKEYS>
AAADcfB8PgAAAAAAAAAAAAAAAAAAAYAAAAA0aNEiBgAAAADAAAAAGgAACAAAD1SwgAMCCAAABgCIAgDSCAAAAAAgAAAAAAEAAAgRFBIAIQAiQAAFgAAHIAHI6PyPgAAAAAAAAADAAAYAACAAAYAAAAAAAA==

> <PUBCHEM_IUPAC_OPENEYE_NAME>
[(2S,3R,4S,5S,6R)-3,4,5-trihydroxy-6-(hydroxymethyl)tetrahydropyran-2-yl] (1R,4S,5R,9S,10R,13S)-13-[(2S,3R,4S,5R,6R)-5-hydroxy-6-(hydroxymethyl)-3,4-bis[[(2S,3R,4S,5S,6R)-3,4,5-trihydroxy-6-(hydroxymethyl)tetrahydropyran-2-yl]oxy]tetrahydropyran-2-yl]oxy-5,9-dimethyl-14-methylene-tetracyclo[11.2.1.01,10.04,9]hexadecane-5-carboxylate

> <PUBCHEM_IUPAC_CAS_NAME>
(1R,4S,5R,9S,10R,13S)-13-[[(2S,3R,4S,5R,6R)-5-hydroxy-6-(hydroxymethyl)-3,4-bis[[(2S,3R,4S,5S,6R)-3,4,5-trihydroxy-6-(hydroxymethyl)-2-oxanyl]oxy]-2-oxanyl]oxy]-5,9-dimethyl-14-methylene-5-tetracyclo[11.2.1.01,10.04,9]hexadecanecarboxylic acid [(2S,3R,4S,5S,6R)-3,4,5-trihydroxy-6-(hydroxymethyl)-2-oxanyl] ester

> <PUBCHEM_IUPAC_NAME_MARKUP>
[(2<I>S</I>,3<I>R</I>,4<I>S</I>,5<I>S</I>,6<I>R</I>)-3,4,5-trihydroxy-6-(hydroxymethyl)oxan-2-yl] (1<I>R</I>,4<I>S</I>,5<I>R</I>,9<I>S</I>,10<I>R</I>,13<I>S</I>)-13-[(2<I>S</I>,3<I>R</I>,4<I>S</I>,5<I>R</I>,6<I>R</I>)-5-hydroxy-6-(hydroxymethyl)-3,4-bis[[(2<I>S</I>,3<I>R</I>,4<I>S</I>,5<I>S</I>,6<I>R</I>)-3,4,5-trihydroxy-6-(hydroxymethyl)oxan-2-yl]oxy]oxan-2-yl]oxy-5,9-dimethyl-14-methylidenetetracyclo[11.2.1.0<SUP>1,10</SUP>.0<SUP>4,9</SUP>]hexadecane-5-carboxylate

> <PUBCHEM_IUPAC_NAME>
[(2S,3R,4S,5S,6R)-3,4,5-trihydroxy-6-(hydroxymethyl)oxan-2-yl] (1R,4S,5R,9S,10R,13S)-13-[(2S,3R,4S,5R,6R)-5-hydroxy-6-(hydroxymethyl)-3,4-bis[[(2S,3R,4S,5S,6R)-3,4,5-trihydroxy-6-(hydroxymethyl)oxan-2-yl]oxy]oxan-2-yl]oxy-5,9-dimethyl-14-methylidenetetracyclo[11.2.1.01,10.04,9]hexadecane-5-carboxylate

> <PUBCHEM_IUPAC_SYSTEMATIC_NAME>
[(2S,3R,4S,5S,6R)-6-(hydroxymethyl)-3,4,5-tris(oxidanyl)oxan-2-yl] (1R,4S,5R,9S,10R,13S)-13-[(2S,3R,4S,5R,6R)-6-(hydroxymethyl)-3,4-bis[[(2S,3R,4S,5S,6R)-6-(hydroxymethyl)-3,4,5-tris(oxidanyl)oxan-2-yl]oxy]-5-oxidanyl-oxan-2-yl]oxy-5,9-dimethyl-14-methylidene-tetracyclo[11.2.1.01,10.04,9]hexadecane-5-carboxylate

> <PUBCHEM_IUPAC_TRADITIONAL_NAME>
(1R,4S,5R,9S,10R,13S)-13-[(2S,3R,4S,5R,6R)-5-hydroxy-6-methylol-3,4-bis[[(2S,3R,4S,5S,6R)-3,4,5-trihydroxy-6-methylol-tetrahydropyran-2-yl]oxy]tetrahydropyran-2-yl]oxy-5,9-dimethyl-14-methylene-tetracyclo[11.2.1.01,10.04,9]hexadecane-5-carboxylic acid [(2S,3R,4S,5S,6R)-3,4,5-trihydroxy-6-methylol-tetrahydropyran-2-yl] ester

> <PUBCHEM_IUPAC_INCHI>
InChI=1S/C44H70O23/c1-17-11-43-9-5-22-41(2,7-4-8-42(22,3)40(59)66-38-33(58)30(55)26(51)20(14-47)62-38)23(43)6-10-44(17,16-43)67-39-35(65-37-32(57)29(54)25(50)19(13-46)61-37)34(27(52)21(15-48)63-39)64-36-31(56)28(53)24(49)18(12-45)60-36/h18-39,45-58H,1,4-16H2,2-3H3/t18-,19-,20-,21-,22+,23+,24-,25-,26-,27-,28+,29+,30+,31-,32-,33-,34+,35-,36+,37+,38+,39+,41-,42-,43-,44+/m1/s1

> <PUBCHEM_IUPAC_INCHIKEY>
HELXLJCILKEWJH-NCGAPWICSA-N

> <PUBCHEM_XLOGP3_AA>
-2.8

> <PUBCHEM_EXACT_MASS>
966.43078848

> <PUBCHEM_MOLECULAR_FORMULA>
C44H70O23

> <PUBCHEM_MOLECULAR_WEIGHT>
967

> <PUBCHEM_OPENEYE_CAN_SMILES>
CC12CCCC(C1CCC34C2CCC(C3)(C(=C)C4)OC5C(C(C(C(O5)CO)O)OC6C(C(C(C(O6)CO)O)O)O)OC7C(C(C(C(O7)CO)O)O)O)(C)C(=O)OC8C(C(C(C(O8)CO)O)O)O

> <PUBCHEM_OPENEYE_ISO_SMILES>
C[C@@]12CCC[C@@]([C@H]1CC[C@]34[C@H]2CC[C@](C3)(C(=C)C4)O[C@H]5[C@@H]([C@H]([C@@H]([C@H](O5)CO)O)O[C@H]6[C@@H]([C@H]([C@@H]([C@H](O6)CO)O)O)O)O[C@H]7[C@@H]([C@H]([C@@H]([C@H](O7)CO)O)O)O)(C)C(=O)O[C@H]8[C@@H]([C@H]([C@@H]([C@H](O8)CO)O)O)O

> <PUBCHEM_CACTVS_TPSA>
374

> <PUBCHEM_MONOISOTOPIC_WEIGHT>
966.43078848

> <PUBCHEM_TOTAL_CHARGE>
0

> <PUBCHEM_HEAVY_ATOM_COUNT>
67

> <PUBCHEM_ATOM_DEF_STEREO_COUNT>
26

> <PUBCHEM_ATOM_UDEF_STEREO_COUNT>
0

> <PUBCHEM_BOND_DEF_STEREO_COUNT>
0

> <PUBCHEM_BOND_UDEF_STEREO_COUNT>
0

> <PUBCHEM_ISOTOPIC_ATOM_COUNT>
0

> <PUBCHEM_COMPONENT_COUNT>
1

> <PUBCHEM_CACTVS_TAUTO_COUNT>
1

> <PUBCHEM_COORDINATE_TYPE>
1
5
255

> <PUBCHEM_BONDANNOTATIONS>
29  1  6
44  1  5
53  12  6
55  14  5
57  15  5
58  16  6
60  17  6
62  19  5
47  2  6
63  20  5
65  21  6
24  30  6
25  68  5
26  38  6
27  69  5
34  41  5
48  51  5
45  5  6
52  5  6
54  59  6
46  6  5
56  6  5
61  66  6
64  67  5
49  8  6
50  9  5

$$$$
6951076
  SciTegic09112316443D

 31 32  0  0  1  0            999 V2000
    1.1724    2.8254    0.4146 O   0  0
    2.1879   -2.3653    0.1845 O   0  0
    4.7155   -0.6736    0.3675 O   0  0
    0.6961   -0.6417    0.5038 N   0  0
    2.5692    1.0956   -0.1810 N   0  0
    0.1936    0.6387    0.0278 C   0  0  1  0  0  0
    2.6905   -0.2103   -0.8123 C   0  0  2  0  0  0
   -1.0322    1.0765    0.8131 C   0  0
    1.3371    1.6359    0.1548 C   0  0
    1.8814   -1.1852    0.0325 C   0  0
   -2.2807    0.3793    0.3393 C   0  0
    4.1460   -0.6331   -0.9300 C   0  0
   -3.0393    0.9509   -0.6722 C   0  0
   -2.6532   -0.8240    0.9210 C   0  0
   -4.1952    0.3053   -1.1112 C   0  0
   -3.8091   -1.4694    0.4819 C   0  0
   -4.5801   -0.9048   -0.5343 C   0  0
   -0.0300    0.5357   -1.0420 H   0  0
    2.2325   -0.1523   -1.8064 H   0  0
   -1.1951    2.1581    0.7165 H   0  0
   -0.8933    0.9051    1.8893 H   0  0
    0.0798   -1.2553    1.0268 H   0  0
    3.3681    1.7228   -0.1935 H   0  0
    4.7201    0.0742   -1.5375 H   0  0
    4.2402   -1.6274   -1.3772 H   0  0
   -2.7470    1.8917   -1.1300 H   0  0
   -2.0686   -1.2702    1.7201 H   0  0
   -4.7952    0.7446   -1.9027 H   0  0
   -4.1102   -2.4106    0.9326 H   0  0
    4.6474    0.2178    0.7495 H   0  0
   -5.4803   -1.4072   -0.8758 H   0  0
  1  9  2  0
  2 10  2  0
  3 12  1  0
  3 30  1  0
  4  6  1  0
  4 10  1  0
  4 22  1  0
  5  7  1  0
  5  9  1  0
  5 23  1  0
  6  8  1  0
  6  9  1  0
  6 18  1  0
  7 10  1  0
  7 12  1  0
  7 19  1  0
  8 11  1  0
  8 20  1  0
  8 21  1  0
 11 13  2  0
 11 14  1  0
 12 24  1  0
 12 25  1  0
 13 15  1  0
 13 26  1  0
 14 16  2  0
 14 27  1  0
 15 17  2  0
 15 28  1  0
 16 17  1  0
 16 29  1  0
 17 31  1  0
M  END
> <Name>
6951076

> <OBJECTID>
9223372406225305614

> <PUBCHEM_COMPOUND_CID>
6951076

> <PUBCHEM_CONFORMER_RMSD>
0.6

> <PUBCHEM_CONFORMER_DIVERSEORDER>
1
18
24
21
22
10
25
6
2
23
7
5
3
26
14
28
13
12
20
8
9
27
17
16
15
11
19
4

> <PUBCHEM_MMFF94_PARTIAL_CHARGES>
25
1 -0.57
10 0.57
11 -0.14
12 0.28
13 -0.15
14 -0.15
15 -0.15
16 -0.15
17 -0.15
2 -0.57
22 0.37
23 0.37
26 0.15
27 0.15
28 0.15
29 0.15
3 -0.68
30 0.4
31 0.15
4 -0.73
5 -0.73
6 0.36
7 0.36
8 0.14
9 0.57

> <PUBCHEM_EFFECTIVE_ROTOR_COUNT>
3.8

> <PUBCHEM_PHARMACOPHORE_FEATURES>
8
1 1 acceptor
1 2 acceptor
1 3 acceptor
1 3 donor
1 4 donor
1 5 donor
6 11 13 14 15 16 17 rings
6 4 5 6 7 9 10 rings

> <PUBCHEM_HEAVY_ATOM_COUNT>
17

> <PUBCHEM_ATOM_DEF_STEREO_COUNT>
2

> <PUBCHEM_ATOM_UDEF_STEREO_COUNT>
0

> <PUBCHEM_BOND_DEF_STEREO_COUNT>
0

> <PUBCHEM_BOND_UDEF_STEREO_COUNT>
0

> <PUBCHEM_ISOTOPIC_ATOM_COUNT>
0

> <PUBCHEM_COMPONENT_COUNT>
1

> <PUBCHEM_CACTVS_TAUTO_COUNT>
4

> <PUBCHEM_CONFORMER_ID>
006A10A400000001

> <PUBCHEM_MMFF94_ENERGY>
52.9378

> <PUBCHEM_FEATURE_SELFOVERLAP>
40.609

> <PUBCHEM_SHAPE_FINGERPRINT>
10498660 4 16660630848655379173
11543360 7 16950858001693552278
11806522 49 18343303673716026832
12553582 1 18339936913018700347
12707595 3 18343023297939636165
13296908 3 18411981403549218793
13705890 14 18411420635006771092
13862211 1 18411419476083272798
14251717 144 18412265060073845262
14252887 29 17632302250674265254
14576447 43 18413668006698754838
15757776 16 18410857629445465886
18186145 218 18187077378245885089
19433438 38 18040715853132712359
200 152 18202281411896421691
20361792 2 17132110264998592457
20645477 70 18201155546349389325
20671657 53 18341618104968229369
20871999 31 18262234418105441861
21256008 61 18342737416405633572
221490 88 18265058109567158155
22646028 28 17988926669410381759
231179 274 11025794297295137344
23402539 116 18272655593566083494
23402655 69 18188487974085833277
23557571 272 17986674758091362796
23559900 14 18335975462982017449
2748010 2 17903933492590714888
2838139 119 15937554700412575086
2871803 45 18408323289218376503
3323516 105 18335422413070261523
4921388 177 16370738049482444435
7364860 26 18200874101105516944
93112 12 18408038520481706789
9709674 26 18190741041099513035

> <PUBCHEM_SHAPE_MULTIPOLES>
322.28
8.92
2
0.96
0.94
0.48
0.1
-3.34
2.14
-0.85
-0.33
0.39
-0.01
0.43

> <PUBCHEM_SHAPE_SELFOVERLAP>
679.874

> <PUBCHEM_SHAPE_VOLUME>
178.4

> <PUBCHEM_COORDINATE_TYPE>
2
5
10

$$$$
6992261
  SciTegic09112316443D

 30 31  0  0  1  0            999 V2000
    0.6847   -2.3162   -0.0128 O   0  0
   -0.8876    2.7210    0.4804 O   0  0
   -1.0074   -0.7356   -0.0644 N   0  0
    0.7997    1.1764    0.1625 N   0  0
   -1.4456    0.5830   -0.5004 C   0  0  1  0  0  0
   -2.8961    0.6568   -0.0391 C   0  0
   -2.1235   -1.5783    0.3261 C   0  0
    1.2450   -0.0167   -0.5523 C   0  0  2  0  0  0
   -3.3523   -0.7985   -0.1206 C   0  0
    0.3107   -1.1539   -0.1472 C   0  0
   -0.5228    1.5999    0.1375 C   0  0
    2.6981   -0.3345   -0.2382 C   0  0
    3.6132    0.8062   -0.6862 C   0  0
    2.8840   -0.6098    1.2548 C   0  0
   -1.3598    0.6364   -1.5919 H   0  0
   -3.4992    1.3210   -0.6652 H   0  0
   -2.9688    1.0122    0.9963 H   0  0
   -2.0896   -1.6888    1.4151 H   0  0
   -2.0469   -2.5675   -0.1341 H   0  0
    1.1109    0.1647   -1.6261 H   0  0
   -4.2309   -1.0064    0.4960 H   0  0
   -3.5962   -1.0492   -1.1602 H   0  0
    2.9928   -1.2374   -0.7887 H   0  0
    1.4837    1.8350    0.5206 H   0  0
    3.4831    1.7143   -0.0898 H   0  0
    4.6627    0.5062   -0.5892 H   0  0
    3.4398    1.0574   -1.7380 H   0  0
    2.6200    0.2557    1.8716 H   0  0
    3.9361   -0.8390    1.4615 H   0  0
    2.3046   -1.4656    1.6096 H   0  0
  1 10  2  0
  2 11  2  0
  3  5  1  0
  3  7  1  0
  3 10  1  0
  4  8  1  0
  4 11  1  0
  4 24  1  0
  5  6  1  0
  5 11  1  0
  5 15  1  0
  6  9  1  0
  6 16  1  0
  6 17  1  0
  7  9  1  0
  7 18  1  0
  7 19  1  0
  8 10  1  0
  8 12  1  0
  8 20  1  0
  9 21  1  0
  9 22  1  0
 12 13  1  0
 12 14  1  0
 12 23  1  0
 13 25  1  0
 13 26  1  0
 13 27  1  0
 14 28  1  0
 14 29  1  0
 14 30  1  0
M  END
> <Name>
6992261

> <OBJECTID>
9223372410520272910

> <PUBCHEM_COMPOUND_CID>
6992261

> <PUBCHEM_CONFORMER_RMSD>
0.6

> <PUBCHEM_CONFORMER_DIVERSEORDER>
1
2

> <PUBCHEM_MMFF94_PARTIAL_CHARGES>
10
1 -0.57
10 0.57
11 0.57
2 -0.57
24 0.37
3 -0.66
4 -0.73
5 0.36
7 0.3
8 0.36

> <PUBCHEM_EFFECTIVE_ROTOR_COUNT>
2

> <PUBCHEM_PHARMACOPHORE_FEATURES>
6
1 1 acceptor
1 2 acceptor
1 4 donor
3 12 13 14 hydrophobe
5 3 5 6 7 9 rings
6 3 4 5 8 10 11 rings

> <PUBCHEM_HEAVY_ATOM_COUNT>
14

> <PUBCHEM_ATOM_DEF_STEREO_COUNT>
2

> <PUBCHEM_ATOM_UDEF_STEREO_COUNT>
0

> <PUBCHEM_BOND_DEF_STEREO_COUNT>
0

> <PUBCHEM_BOND_UDEF_STEREO_COUNT>
0

> <PUBCHEM_ISOTOPIC_ATOM_COUNT>
0

> <PUBCHEM_COMPONENT_COUNT>
1

> <PUBCHEM_CACTVS_TAUTO_COUNT>
2

> <PUBCHEM_CONFORMER_ID>
006AB18500000001

> <PUBCHEM_MMFF94_ENERGY>
42.5002

> <PUBCHEM_FEATURE_SELFOVERLAP>
30.544

> <PUBCHEM_SHAPE_FINGERPRINT>
10130415 120 18335137622199333393
108231 29 18268435804976628177
10857977 72 18342450460992572523
10967382 1 18411139181399298023
11132069 177 18412258428412238250
12032990 46 18340777025764932079
12382932 28 18412548678355313859
13380535 21 17984153555947438864
14325111 11 18407760339391451878
14614273 12 18189049807052443125
15375462 189 18187650240445625811
15775835 57 18040719173195017332
16945 1 18339643339113796349
17846911 113 18412255125577080353
193761 8 17907300953167387015
20201158 50 18408884036164895751
20510252 161 18343304755974056096
20525323 117 18341045212260242509
20588541 1 18408326596738898271
20645476 183 17749965478013839550
21501502 16 18124598582831361578
22802520 49 17914636976605527598
2334 1 18123467438911868837
23402539 116 18342451569553051726
23402655 69 18340473467031685045
23419403 2 15758726916023774087
23463225 33 18261106344707705394
23552423 10 18119251657817258878
23559900 14 18342460340282516796
2748010 2 18195802084141893069
3312278 4 18335144210478770227
353137 74 18336548218102883549
528886 8 18412543227793960187
537710 114 18335707181938865093
53812653 166 18342174458046816161
53812653 8 18409735045279730084
7364860 26 17838901786534387369
81228 2 18269284469198198113

> <PUBCHEM_SHAPE_MULTIPOLES>
266.41
5.15
2.1
0.82
1.22
0.48
0.11
-0.38
-0.13
-0.59
0.3
0.45
-0.01
-0.29

> <PUBCHEM_SHAPE_SELFOVERLAP>
553.139

> <PUBCHEM_SHAPE_VOLUME>
152.5

> <PUBCHEM_COORDINATE_TYPE>
2
5
10

$$$$
7074739
  SciTegic09112316443D

 33 34  0  0  1  0            999 V2000
   -0.1334    2.5954   -0.3016 O   0  0
   -0.8385   -2.6382   -0.3751 O   0  0
   -1.4535    0.7409    0.1313 N   0  0
    0.5875   -0.8185   -0.4007 N   0  0
   -1.5413   -0.5899    0.7135 C   0  0  1  0  0  0
   -3.0254   -0.9445    0.6614 C   0  0
   -2.7606    1.2857   -0.1714 C   0  0
   -3.6128    0.0399   -0.3529 C   0  0
    0.9402    0.4715    0.1927 C   0  0  2  0  0  0
   -0.2487    1.3986   -0.0529 C   0  0
   -0.6120   -1.4619   -0.1088 C   0  0
    2.2243    1.0199   -0.4075 C   0  0
    3.4622    0.1530   -0.1145 C   0  0
    3.6937   -0.0430    1.3845 C   0  0
    3.3183   -1.2088   -0.7980 C   0  0
   -1.1730   -0.5686    1.7458 H   0  0
   -3.4792   -0.7577    1.6425 H   0  0
   -3.2289   -1.9845    0.3915 H   0  0
   -2.7262    1.9270   -1.0562 H   0  0
   -3.0869    1.8765    0.6910 H   0  0
    1.0227    0.3414    1.2772 H   0  0
   -3.4820   -0.3591   -1.3663 H   0  0
   -4.6777    0.2296   -0.1937 H   0  0
    2.1137    1.1420   -1.4936 H   0  0
    2.4097    2.0261   -0.0091 H   0  0
    1.1572   -1.2741   -1.0966 H   0  0
    4.3343    0.6658   -0.5395 H   0  0
    2.9251   -0.6673    1.8507 H   0  0
    3.7173    0.9206    1.9039 H   0  0
    4.6573   -0.5356    1.5552 H   0  0
    2.7500   -1.9403   -0.2162 H   0  0
    4.3204   -1.6525   -0.8766 H   0  0
    2.9603   -1.1271   -1.8292 H   0  0
  1 10  2  0
  2 11  2  0
  3  5  1  0
  3  7  1  0
  3 10  1  0
  4  9  1  0
  4 11  1  0
  4 26  1  0
  5  6  1  0
  5 11  1  0
  5 16  1  0
  6  8  1  0
  6 17  1  0
  6 18  1  0
  7  8  1  0
  7 19  1  0
  7 20  1  0
  8 22  1  0
  8 23  1  0
  9 10  1  0
  9 12  1  0
  9 21  1  0
 12 13  1  0
 12 24  1  0
 12 25  1  0
 13 14  1  0
 13 15  1  0
 13 27  1  0
 14 28  1  0
 14 29  1  0
 14 30  1  0
 15 31  1  0
 15 32  1  0
 15 33  1  0
M  END
> <Name>
7074739

> <OBJECTID>
9223372414815240206

> <PUBCHEM_COMPOUND_CID>
7074739

> <PUBCHEM_CONFORMER_RMSD>
0.6

> <PUBCHEM_CONFORMER_DIVERSEORDER>
1
2

> <PUBCHEM_MMFF94_PARTIAL_CHARGES>
10
1 -0.57
10 0.57
11 0.57
2 -0.57
26 0.37
3 -0.66
4 -0.73
5 0.36
7 0.3
9 0.36

> <PUBCHEM_EFFECTIVE_ROTOR_COUNT>
3

> <PUBCHEM_PHARMACOPHORE_FEATURES>
6
1 1 acceptor
1 2 acceptor
1 4 donor
3 13 14 15 hydrophobe
5 3 5 6 7 8 rings
6 3 4 5 9 10 11 rings

> <PUBCHEM_HEAVY_ATOM_COUNT>
15

> <PUBCHEM_ATOM_DEF_STEREO_COUNT>
2

> <PUBCHEM_ATOM_UDEF_STEREO_COUNT>
0

> <PUBCHEM_BOND_DEF_STEREO_COUNT>
0

> <PUBCHEM_BOND_UDEF_STEREO_COUNT>
0

> <PUBCHEM_ISOTOPIC_ATOM_COUNT>
0

> <PUBCHEM_COMPONENT_COUNT>
1

> <PUBCHEM_CACTVS_TAUTO_COUNT>
2

> <PUBCHEM_CONFORMER_ID>
006BF3B300000001

> <PUBCHEM_MMFF94_ENERGY>
51.9548

> <PUBCHEM_FEATURE_SELFOVERLAP>
30.569

> <PUBCHEM_SHAPE_FINGERPRINT>
10130415 120 18259984898555393792
10967382 1 18410859853948465862
11132069 177 18342171159195434587
11543360 7 15141254281204162163
12032990 46 18409739464532078235
12382932 28 18342172327922508882
124424 183 18040991856294486769
13380535 76 18263643979174606921
14144814 61 18409171025758087352
14325111 11 18411141324640784652
14614273 12 18116993278456756221
14993402 34 18409729581843920333
15669948 3 18337392763666516374
16945 1 18270970149177054777
17804303 29 18341616954534140070
17846911 113 18411694357483032089
18186145 218 18059303054118522380
19026448 5 16081372950933153579
193761 8 17834678575293509157
20279233 1 18273494581125595474
20510252 161 18272933782618928752
20528008 55 18130783477777282666
20645476 183 17313683632004320214
21501502 16 18051413173415475709
2334 1 17547575241488828719
23402539 116 18343007896345142565
23419403 2 16477342418607063965
23463225 33 18334577940642223120
23532345 42 18412545439912990704
23552423 10 17687187907837020429
23559900 14 18341333289218885270
2748010 2 18339655421015140159
3286 77 17203607051944485202
34934 24 18263641934665010284
4072396 5 18189882150550508803
4175511 318 17748821891278385997
43471831 8 18262798441315682827
465052 167 18043547199102207907
57812782 119 18412824685474659616
69090 78 18130783481803588479
7364860 26 18123757722988342528
81228 2 18264497195550002752

> <PUBCHEM_SHAPE_MULTIPOLES>
286.99
6.15
2.06
0.89
2.17
0.05
-0.18
0.52
-0.51
-0.57
0.36
0.51
0.12
0.33

> <PUBCHEM_SHAPE_SELFOVERLAP>
591.032

> <PUBCHEM_SHAPE_VOLUME>
165.8

> <PUBCHEM_COORDINATE_TYPE>
2
5
10

$$$$
7075896
  SciTegic09112316443D

 32 32  0  0  1  0            999 V2000
   -1.1626   -2.3780   -0.1822 O   0  0
    1.1627    2.3781   -0.1822 O   0  0
    0.7424   -1.0943   -0.0361 N   0  0
   -0.7424    1.0945   -0.0360 N   0  0
    1.3819    0.0746    0.5496 C   0  0  1  0  0  0
   -1.3820   -0.0745    0.5496 C   0  0  1  0  0  0
    2.8595    0.1298    0.1966 C   0  0
   -2.8595   -0.1299    0.1965 C   0  0
   -0.6279   -1.2934    0.0356 C   0  0
    0.6280    1.2935    0.0357 C   0  0
    3.5977   -1.0880    0.7544 C   0  0
    3.0537    0.2209   -1.3179 C   0  0
   -3.0536   -0.2210   -1.3179 C   0  0
   -3.5979    1.0877    0.7544 C   0  0
    1.2438    0.0256    1.6368 H   0  0
   -1.2438   -0.0255    1.6369 H   0  0
    3.3014    1.0268    0.6496 H   0  0
   -3.3012   -1.0270    0.6494 H   0  0
    1.3054   -1.8908   -0.3161 H   0  0
   -1.3054    1.8911   -0.3161 H   0  0
    3.3163   -2.0203    0.2557 H   0  0
    4.6785   -0.9660    0.6209 H   0  0
    3.4107   -1.2016    1.8275 H   0  0
    2.6482   -0.6517   -1.8409 H   0  0
    4.1236    0.2651   -1.5533 H   0  0
    2.6018    1.1157   -1.7535 H   0  0
   -2.6016   -1.1158   -1.7536 H   0  0
   -4.1235   -0.2655   -1.5534 H   0  0
   -2.6481    0.6516   -1.8410 H   0  0
   -3.4110    1.2013    1.8275 H   0  0
   -4.6787    0.9657    0.6207 H   0  0
   -3.3165    2.0202    0.2558 H   0  0
  1  9  2  0
  2 10  2  0
  3  5  1  0
  3  9  1  0
  3 19  1  0
  4  6  1  0
  4 10  1  0
  4 20  1  0
  5  7  1  0
  5 10  1  0
  5 15  1  0
  6  8  1  0
  6  9  1  0
  6 16  1  0
  7 11  1  0
  7 12  1  0
  7 17  1  0
  8 13  1  0
  8 14  1  0
  8 18  1  0
 11 21  1  0
 11 22  1  0
 11 23  1  0
 12 24  1  0
 12 25  1  0
 12 26  1  0
 13 27  1  0
 13 28  1  0
 13 29  1  0
 14 30  1  0
 14 31  1  0
 14 32  1  0
M  END
> <Name>
7075896

> <OBJECTID>
9223372419110207502

> <PUBCHEM_COMPOUND_CID>
7075896

> <PUBCHEM_CONFORMER_RMSD>
0.6

> <PUBCHEM_CONFORMER_DIVERSEORDER>
1
2
4
6
5
3

> <PUBCHEM_MMFF94_PARTIAL_CHARGES>
10
1 -0.57
10 0.57
19 0.37
2 -0.57
20 0.37
3 -0.73
4 -0.73
5 0.36
6 0.36
9 0.57

> <PUBCHEM_EFFECTIVE_ROTOR_COUNT>
2.8

> <PUBCHEM_PHARMACOPHORE_FEATURES>
7
1 1 acceptor
1 2 acceptor
1 3 donor
1 4 donor
3 7 11 12 hydrophobe
3 8 13 14 hydrophobe
6 3 4 5 6 9 10 rings

> <PUBCHEM_HEAVY_ATOM_COUNT>
14

> <PUBCHEM_ATOM_DEF_STEREO_COUNT>
2

> <PUBCHEM_ATOM_UDEF_STEREO_COUNT>
0

> <PUBCHEM_BOND_DEF_STEREO_COUNT>
0

> <PUBCHEM_BOND_UDEF_STEREO_COUNT>
0

> <PUBCHEM_ISOTOPIC_ATOM_COUNT>
0

> <PUBCHEM_COMPONENT_COUNT>
1

> <PUBCHEM_CACTVS_TAUTO_COUNT>
3

> <PUBCHEM_CONFORMER_ID>
006BF83800000001

> <PUBCHEM_MMFF94_ENERGY>
41.9146

> <PUBCHEM_FEATURE_SELFOVERLAP>
35.53

> <PUBCHEM_SHAPE_FINGERPRINT>
10130415 120 18259981557292123898
10219947 1 18409168775010588497
10465860 71 18270701842997400540
11132069 177 18200588099180080424
124424 183 17967524649563305555
12932764 1 17676480691944079001
13172582 1 18410856546754887914
13690532 89 18410566288812987699
13760787 5 18259987050175532604
14144814 61 18410573993741385986
14911166 2 18410856572524691774
14993402 34 18410856559645064415
15279308 100 18336264634307825733
15309172 13 18410015407886298003
15775835 57 18187654629812459804
16945 1 18410855473013063762
18186145 218 18342455945787395085
18511873 20 18410855464423129297
18522853 295 18410019801511318970
18619055 16 18259983786401249334
19026448 4 15719114643016317249
193761 8 17978511162915946643
19422 9 17967541180808031923
20511035 2 18057038223458502592
20645476 183 17895774992028051870
207724 885 18407758144467939363
21501502 16 18194683897785096591
2334 1 17978228588427608106
23402539 116 18200301135572749622
23402655 69 18197202660920807933
23463225 33 18263362508223994314
23552423 10 17974571600084988078
23559900 14 18341901814377427988
2748010 2 18050286160990699554
528886 8 18411980230870043033
53812654 25 18410848854927429050
57812782 119 16056876927119862153
63268167 104 18334011730692657736
7364860 26 17984986152886193752
74978 22 18338799038616305666

> <PUBCHEM_SHAPE_MULTIPOLES>
266.41
5.87
1.81
1
0
0
0.26
0
0.03
0
0.02
0
0
-0.62

> <PUBCHEM_SHAPE_SELFOVERLAP>
532.987

> <PUBCHEM_SHAPE_VOLUME>
156.4

> <PUBCHEM_COORDINATE_TYPE>
2
5
10

$$$$
7076347
  SciTegic09112316443D

 39 40  0  0  1  0            999 V2000
    1.2127   -2.7788   -0.9736 O   0  0
    0.9230    2.5822   -1.1460 O   0  0
    2.1669    0.6674   -0.9561 N   0  0
   -0.0196   -0.8658   -1.2421 N   0  0
    2.3008   -0.6969   -0.4803 C   0  0  1  0  0  0
    2.5212   -0.7727    1.0215 C   0  0
   -0.2759    0.5185   -0.8907 C   0  0  2  0  0  0
    3.7467    0.0225    1.5067 C   0  0
    1.1356   -1.5505   -0.9399 C   0  0
    0.9785    1.3576   -1.0334 C   0  0
   -0.9208    0.6639    0.4777 C   0  0
    5.0389   -0.4246    0.8219 C   0  0
    3.5254    1.5180    1.2678 C   0  0
   -2.3817    0.2967    0.4514 C   0  0
   -3.3270    1.2766    0.1847 C   0  0
   -2.7600   -1.0157    0.6949 C   0  0
   -4.6797    0.9368    0.1608 C   0  0
   -4.1125   -1.3557    0.6709 C   0  0
   -5.0724   -0.3793    0.4039 C   0  0
    3.1730   -1.1008   -1.0078 H   0  0
    1.6383   -0.4237    1.5656 H   0  0
    2.6474   -1.8242    1.3117 H   0  0
   -0.9592    0.8840   -1.6692 H   0  0
    3.8433   -0.1489    2.5862 H   0  0
    3.0127    1.1728   -1.1934 H   0  0
   -0.8093   -1.4152   -1.5678 H   0  0
   -0.8238    1.6959    0.8405 H   0  0
   -0.4161    0.0490    1.2301 H   0  0
    5.9009    0.0624    1.2913 H   0  0
    5.1757   -1.5066    0.9195 H   0  0
    5.0634   -0.1694   -0.2419 H   0  0
    2.4831    1.8229    1.4019 H   0  0
    4.0922    2.0678    2.0315 H   0  0
    3.9277    1.8893    0.3232 H   0  0
   -3.0312    2.3039   -0.0082 H   0  0
   -2.0214   -1.7840    0.9055 H   0  0
   -5.4270    1.6967   -0.0477 H   0  0
   -4.4184   -2.3803    0.8605 H   0  0
   -6.1256   -0.6440    0.3852 H   0  0
  1  9  2  0
  2 10  2  0
  3  5  1  0
  3 10  1  0
  3 25  1  0
  4  7  1  0
  4  9  1  0
  4 26  1  0
  5  6  1  0
  5  9  1  0
  5 20  1  0
  6  8  1  0
  6 21  1  0
  6 22  1  0
  7 10  1  0
  7 11  1  0
  7 23  1  0
  8 12  1  0
  8 13  1  0
  8 24  1  0
 11 14  1  0
 11 27  1  0
 11 28  1  0
 12 29  1  0
 12 30  1  0
 12 31  1  0
 13 32  1  0
 13 33  1  0
 13 34  1  0
 14 15  2  0
 14 16  1  0
 15 17  1  0
 15 35  1  0
 16 18  2  0
 16 36  1  0
 17 19  2  0
 17 37  1  0
 18 19  1  0
 18 38  1  0
 19 39  1  0
M  END
> <Name>
7076347

> <OBJECTID>
9223372423405174798

> <PUBCHEM_COMPOUND_CID>
7076347

> <PUBCHEM_CONFORMER_RMSD>
0.6

> <PUBCHEM_CONFORMER_DIVERSEORDER>
1
14
18
17
11
9
12
13
8
6
10
19
5
20
3
7
21
15
2
16
4
22

> <PUBCHEM_MMFF94_PARTIAL_CHARGES>
22
1 -0.57
10 0.57
11 0.14
14 -0.14
15 -0.15
16 -0.15
17 -0.15
18 -0.15
19 -0.15
2 -0.57
25 0.37
26 0.37
3 -0.73
35 0.15
36 0.15
37 0.15
38 0.15
39 0.15
4 -0.73
5 0.36
7 0.36
9 0.57

> <PUBCHEM_EFFECTIVE_ROTOR_COUNT>
4.8

> <PUBCHEM_PHARMACOPHORE_FEATURES>
7
1 1 acceptor
1 2 acceptor
1 3 donor
1 4 donor
3 8 12 13 hydrophobe
6 14 15 16 17 18 19 rings
6 3 4 5 7 9 10 rings

> <PUBCHEM_HEAVY_ATOM_COUNT>
19

> <PUBCHEM_ATOM_DEF_STEREO_COUNT>
2

> <PUBCHEM_ATOM_UDEF_STEREO_COUNT>
0

> <PUBCHEM_BOND_DEF_STEREO_COUNT>
0

> <PUBCHEM_BOND_UDEF_STEREO_COUNT>
0

> <PUBCHEM_ISOTOPIC_ATOM_COUNT>
0

> <PUBCHEM_COMPONENT_COUNT>
1

> <PUBCHEM_CACTVS_TAUTO_COUNT>
4

> <PUBCHEM_CONFORMER_ID>
006BF9FB00000001

> <PUBCHEM_MMFF94_ENERGY>
66.4044

> <PUBCHEM_FEATURE_SELFOVERLAP>
35.527

> <PUBCHEM_SHAPE_FINGERPRINT>
10498660 4 12319458753751502403
11045977 3 18413103978729375170
11370993 70 18343580737724700227
11796584 16 15936410026750084755
12251169 10 18334011713465315627
12507560 40 17988645133987546239
12633257 1 18041002834463211753
12839892 36 18341890844213945343
14178342 30 18339090276433657385
14289901 80 17561076969705933899
14787075 74 17488733622693001803
15295992 7 16629664280512249330
15375358 24 18413670193290529227
16752209 62 12324501174311260039
17349148 13 18409729586508061653
17834072 14 18411135818946274993
1813 80 15719391690124657230
19784866 170 18411980222148369366
204376 136 17561078137515168519
20626108 58 18115302409945538657
20645477 70 18261124014508941055
21033648 29 17774143631012646425
21069387 34 16950568830499463699
21501925 9 18334296478735050165
21637258 2 16298652911956144000
221357 26 7997971267502002387
22854114 59 17989204836977450899
231179 274 16630521821765678584
23402539 116 18261666018096932805
23557571 272 18262797359025972633
23559900 14 18267597818413801023
24859131 72 18335696113797418264
25 1 10952052242806179372
2838139 119 14979950406909120506
296302 2 17632577128670788875
347723 3 10665222640363047948
394222 165 17752504306234197212
427121 178 17561086929513839354
465052 167 18041003963733701122
474 4 14908178681214428569
4990 188 8646767806895136800
5104073 3 18188787153382189593
67856867 119 18189618426753344773
81228 2 17754752532365923749
9709674 26 18335719251472531163
9999458 23 17918268771070818328

> <PUBCHEM_SHAPE_MULTIPOLES>
369.31
9.55
2.01
1.35
4.4
0.13
-0.03
0.25
4.53
-0.43
-0.64
-1.11
-0.03
0.45

> <PUBCHEM_SHAPE_SELFOVERLAP>
768.521

> <PUBCHEM_SHAPE_VOLUME>
208.7

> <PUBCHEM_COORDINATE_TYPE>
2
5
10

$$$$
7076549
  SciTegic09112316443D

 27 28  0  0  1  0            999 V2000
    2.1083    2.6406   -0.3166 O   0  0
    2.3430   -2.6821   -0.3300 O   0  0
    1.2111   -0.7402   -0.8290 N   0  0
    3.1547    0.6874    0.3008 N   0  0
    0.8286    0.6048   -0.4282 C   0  0  1  0  0  0
   -0.0935    0.6132    0.7816 C   0  0
    2.0869    1.4181   -0.1841 C   0  0
   -1.5097    0.2581    0.4100 C   0  0
    3.0166   -0.6684    0.7871 C   0  0
    2.2000   -1.4688   -0.1961 C   0  0
   -2.3934    1.2651    0.0492 C   0  0
   -1.9092   -1.0703    0.4343 C   0  0
   -3.7046    0.9366   -0.2948 C   0  0
   -3.2205   -1.3988    0.0902 C   0  0
   -4.1183   -0.3954   -0.2743 C   0  0
    0.3361    1.0476   -1.3032 H   0  0
   -0.0942    1.6069    1.2502 H   0  0
    0.2569   -0.0685    1.5666 H   0  0
    0.6100   -1.2296   -1.4850 H   0  0
    2.5272   -0.6538    1.7641 H   0  0
    4.0181   -1.0980    0.8735 H   0  0
    4.0117    1.1876    0.5162 H   0  0
   -2.0807    2.3053    0.0278 H   0  0
   -1.2190   -1.8598    0.7177 H   0  0
   -4.4034    1.7177   -0.5793 H   0  0
   -3.5426   -2.4358    0.1064 H   0  0
   -5.1392   -0.6511   -0.5422 H   0  0
  1  7  2  0
  2 10  2  0
  3  5  1  0
  3 10  1  0
  3 19  1  0
  4  7  1  0
  4  9  1  0
  4 22  1  0
  5  6  1  0
  5  7  1  0
  5 16  1  0
  6  8  1  0
  6 17  1  0
  6 18  1  0
  8 11  2  0
  8 12  1  0
  9 10  1  0
  9 20  1  0
  9 21  1  0
 11 13  1  0
 11 23  1  0
 12 14  2  0
 12 24  1  0
 13 15  2  0
 13 25  1  0
 14 15  1  0
 14 26  1  0
 15 27  1  0
M  END
> <Name>
7076549

> <OBJECTID>
9223372427700142094

> <PUBCHEM_COMPOUND_CID>
7076549

> <PUBCHEM_CONFORMER_RMSD>
0.6

> <PUBCHEM_CONFORMER_DIVERSEORDER>
1
9
4
6
5
8
7
3
2

> <PUBCHEM_MMFF94_PARTIAL_CHARGES>
22
1 -0.57
10 0.57
11 -0.15
12 -0.15
13 -0.15
14 -0.15
15 -0.15
19 0.37
2 -0.57
22 0.37
23 0.15
24 0.15
25 0.15
26 0.15
27 0.15
3 -0.73
4 -0.73
5 0.36
6 0.14
7 0.57
8 -0.14
9 0.36

> <PUBCHEM_EFFECTIVE_ROTOR_COUNT>
2.8

> <PUBCHEM_PHARMACOPHORE_FEATURES>
6
1 1 acceptor
1 2 acceptor
1 3 donor
1 4 donor
6 3 4 5 7 9 10 rings
6 8 11 12 13 14 15 rings

> <PUBCHEM_HEAVY_ATOM_COUNT>
15

> <PUBCHEM_ATOM_DEF_STEREO_COUNT>
1

> <PUBCHEM_ATOM_UDEF_STEREO_COUNT>
0

> <PUBCHEM_BOND_DEF_STEREO_COUNT>
0

> <PUBCHEM_BOND_UDEF_STEREO_COUNT>
0

> <PUBCHEM_ISOTOPIC_ATOM_COUNT>
0

> <PUBCHEM_COMPONENT_COUNT>
1

> <PUBCHEM_CACTVS_TAUTO_COUNT>
4

> <PUBCHEM_CONFORMER_ID>
006BFAC500000001

> <PUBCHEM_MMFF94_ENERGY>
48.2593

> <PUBCHEM_FEATURE_SELFOVERLAP>
30.454

> <PUBCHEM_SHAPE_FINGERPRINT>
10608611 8 18408038528908435845
10616163 171 18267586995080630855
10922523 26 18260266326524633189
116883 192 18193555562806383844
12162725 195 18410292527644974409
12932764 1 18336001816900988365
13296908 3 18342742883967768007
13571099 22 18341331080893648843
14144814 61 18410858746010329945
14350558 41 18413672400365538683
14415576 193 18262521514788323428
15219456 202 18409729573459726893
15375462 6 18337673117467027693
15442244 35 18195811773466780633
16945 1 18410867559072198688
17492 89 18411135840348135343
17990270 104 18410296887042022194
18186145 218 18338520738068865173
18619055 16 18342738529108020847
200 152 18059851779435652021
20201158 50 18411138034748577043
20559304 39 18413672422051618536
20645477 56 18187363217030941285
20645477 70 18409727365989260511
20671657 53 18198070174798362622
21501502 16 18411421726181665417
21501925 9 18412256229378485178
221490 88 18336557100200987194
23402539 116 18337658768287279389
23463225 33 18412544301641155749
23559900 14 18341044125628326434
57812782 119 18333728014022463325
58051976 100 18410295813611402247
58051976 378 18341049721770207653
69090 78 18410849954665975095
7364860 26 18411983576538978440
74978 22 18337398149444592809
81539 233 18262238953522341132
93112 12 18409167697248129669
9709674 26 18408889555150749147

> <PUBCHEM_SHAPE_MULTIPOLES>
286.99
6.84
2.17
0.79
3.45
0.13
0.04
0.65
-0.16
-1.52
-0.28
-0.12
0.04
0.09

> <PUBCHEM_SHAPE_SELFOVERLAP>
607.792

> <PUBCHEM_SHAPE_VOLUME>
158.4

> <PUBCHEM_COORDINATE_TYPE>
2
5
10

$$$$
7408474
  SciTegic09112316443D

 17 17  0  0  1  0            999 V2000
   -2.3287   -0.9482   -0.2692 O   0  0
    2.7799    0.4724   -0.2446 O   0  0
    0.5478    1.0528   -0.1664 N   0  0
   -0.1041   -1.5140   -0.1071 N   0  0
   -0.7542    0.7656    0.4193 C   0  0  2  0  0  0
   -1.1631   -0.6214   -0.0588 C   0  0
    1.1939   -1.1951    0.4507 C   0  0
   -1.7768    1.8229    0.0352 C   0  0
    1.6053    0.1650   -0.0590 C   0  0
   -0.6343    0.7333    1.5085 H   0  0
    0.7594    2.0066   -0.4443 H   0  0
    1.9053   -1.9540    0.1158 H   0  0
    1.1263   -1.1838    1.5421 H   0  0
   -0.2981   -2.4760   -0.3677 H   0  0
   -1.4510    2.8168    0.3598 H   0  0
   -1.9226    1.8584   -1.0504 H   0  0
   -2.7486    1.6160    0.4956 H   0  0
  1  6  2  0
  2  9  2  0
  3  5  1  0
  3  9  1  0
  3 11  1  0
  4  6  1  0
  4  7  1  0
  4 14  1  0
  5  6  1  0
  5  8  1  0
  5 10  1  0
  7  9  1  0
  7 12  1  0
  7 13  1  0
  8 15  1  0
  8 16  1  0
  8 17  1  0
M  END
> <Name>
7408474

> <OBJECTID>
9223372431995109390

> <PUBCHEM_COMPOUND_CID>
7408474

> <PUBCHEM_CONFORMER_RMSD>
0.4

> <PUBCHEM_CONFORMER_DIVERSEORDER>
2
1

> <PUBCHEM_MMFF94_PARTIAL_CHARGES>
10
1 -0.57
11 0.37
14 0.37
2 -0.57
3 -0.73
4 -0.73
5 0.36
6 0.57
7 0.36
9 0.57

> <PUBCHEM_EFFECTIVE_ROTOR_COUNT>
0.8

> <PUBCHEM_PHARMACOPHORE_FEATURES>
5
1 1 acceptor
1 2 acceptor
1 3 donor
1 4 donor
6 3 4 5 6 7 9 rings

> <PUBCHEM_HEAVY_ATOM_COUNT>
9

> <PUBCHEM_ATOM_DEF_STEREO_COUNT>
1

> <PUBCHEM_ATOM_UDEF_STEREO_COUNT>
0

> <PUBCHEM_BOND_DEF_STEREO_COUNT>
0

> <PUBCHEM_BOND_UDEF_STEREO_COUNT>
0

> <PUBCHEM_ISOTOPIC_ATOM_COUNT>
0

> <PUBCHEM_COMPONENT_COUNT>
1

> <PUBCHEM_CACTVS_TAUTO_COUNT>
4

> <PUBCHEM_CONFORMER_ID>
00710B5A00000002

> <PUBCHEM_MMFF94_ENERGY>
28.0635

> <PUBCHEM_FEATURE_SELFOVERLAP>
25.38

> <PUBCHEM_SHAPE_FINGERPRINT>
12897270 3 18411134774736368183
16714656 1 18341335603430914542
16945 1 18338233872507368874
18185500 45 18266455588745756583
21040471 1 18124311614570406377
23552423 10 18262239911073317966
2748010 2 18339364041611697302
29004967 10 18041563645153557299
5084963 1 18201726179772449552

> <PUBCHEM_SHAPE_MULTIPOLES>
163.52
2.95
1.7
0.64
0.6
0.02
-0.04
-0.58
0.21
-0.6
0.02
0.01
0
-0.26

> <PUBCHEM_SHAPE_SELFOVERLAP>
328.086

> <PUBCHEM_SHAPE_VOLUME>
95.5

> <PUBCHEM_COORDINATE_TYPE>
2
5
10

$$$$
7855578
  SciTegic09112316443D

 26 26  0  0  1  0            999 V2000
   -1.2112   -2.2743    0.6475 O   0  0
    2.3293    1.6947    0.3878 O   0  0
    0.2427    0.9317    0.9642 N   0  0
    0.8089   -1.4484   -0.0785 N   0  0
   -0.9176    0.1141    0.6499 C   0  0  1  0  0  0
   -1.7001    0.6396   -0.5435 C   0  0
    1.5311   -0.3326   -0.6694 C   0  0  1  0  0  0
   -0.4626   -1.3193    0.4473 C   0  0
    1.4494    0.8410    0.2946 C   0  0
   -2.9307   -0.2280   -0.8108 C   0  0
   -2.1137    2.0955   -0.3235 C   0  0
    2.9744   -0.7139   -0.9657 C   0  0
   -1.5400    0.1303    1.5536 H   0  0
   -1.0852    0.6140   -1.4505 H   0  0
    1.0268   -0.0568   -1.6009 H   0  0
    0.1158    1.7110    1.6029 H   0  0
    1.1331   -2.3900   -0.2785 H   0  0
   -3.5469   -0.3382    0.0880 H   0  0
   -3.5571    0.2211   -1.5898 H   0  0
   -2.6550   -1.2246   -1.1682 H   0  0
   -2.7121    2.2055    0.5875 H   0  0
   -2.7151    2.4582   -1.1643 H   0  0
   -1.2434    2.7548   -0.2433 H   0  0
    3.0197   -1.5763   -1.6393 H   0  0
    3.5119    0.1149   -1.4383 H   0  0
    3.5109   -0.9798   -0.0477 H   0  0
  1  8  2  0
  2  9  2  0
  3  5  1  0
  3  9  1  0
  3 16  1  0
  4  7  1  0
  4  8  1  0
  4 17  1  0
  5  6  1  0
  5  8  1  0
  5 13  1  0
  6 10  1  0
  6 11  1  0
  6 14  1  0
  7  9  1  0
  7 12  1  0
  7 15  1  0
 10 18  1  0
 10 19  1  0
 10 20  1  0
 11 21  1  0
 11 22  1  0
 11 23  1  0
 12 24  1  0
 12 25  1  0
 12 26  1  0
M  END
> <Name>
7855578

> <OBJECTID>
9223372436290076686

> <PUBCHEM_COMPOUND_CID>
7855578

> <PUBCHEM_CONFORMER_RMSD>
0.4

> <PUBCHEM_CONFORMER_DIVERSEORDER>
2
3
6
5
9
10
1
7
8
4

> <PUBCHEM_MMFF94_PARTIAL_CHARGES>
10
1 -0.57
16 0.37
17 0.37
2 -0.57
3 -0.73
4 -0.73
5 0.36
7 0.36
8 0.57
9 0.57

> <PUBCHEM_EFFECTIVE_ROTOR_COUNT>
1.8

> <PUBCHEM_PHARMACOPHORE_FEATURES>
6
1 1 acceptor
1 2 acceptor
1 3 donor
1 4 donor
3 6 10 11 hydrophobe
6 3 4 5 7 8 9 rings

> <PUBCHEM_HEAVY_ATOM_COUNT>
12

> <PUBCHEM_ATOM_DEF_STEREO_COUNT>
2

> <PUBCHEM_ATOM_UDEF_STEREO_COUNT>
0

> <PUBCHEM_BOND_DEF_STEREO_COUNT>
0

> <PUBCHEM_BOND_UDEF_STEREO_COUNT>
0

> <PUBCHEM_ISOTOPIC_ATOM_COUNT>
0

> <PUBCHEM_COMPONENT_COUNT>
1

> <PUBCHEM_CACTVS_TAUTO_COUNT>
4

> <PUBCHEM_CONFORMER_ID>
0077DDDA00000002

> <PUBCHEM_MMFF94_ENERGY>
36.9501

> <PUBCHEM_FEATURE_SELFOVERLAP>
30.454

> <PUBCHEM_SHAPE_FINGERPRINT>
11206711 2 18339088098573852717
12138202 97 18190727833500019438
12423570 1 11504185024660533842
12716758 59 18335423473700388794
12897270 3 18410284792514246229
15775835 57 18192437359554541949
16945 1 18408604751246888242
17844478 74 18262256489831333403
18185500 45 17475226904024475211
18534176 82 18190738837295856876
20201158 50 18272653454419286038
20653085 51 18341899545606372121
21040471 1 18261391117918404672
22802520 49 18340212980547215143
23211744 25 18338231553488708131
23402539 116 18193248975129246941
23419403 2 13608014105663324602
23552423 10 18194668281822214973
23559900 14 18269281163033508710
25 1 18048605823840265773
2748010 2 18195536023702658866
5084963 1 18272086080528184853
528886 8 18043817480797688381
549884 4 18125716794862984021
63268167 104 18051980212067018888

> <PUBCHEM_SHAPE_MULTIPOLES>
225.25
3.86
2.03
0.97
0.38
0.14
0.05
-0.68
1.48
-0.42
-0.37
0.04
0.04
0.49

> <PUBCHEM_SHAPE_SELFOVERLAP>
450.61

> <PUBCHEM_SHAPE_VOLUME>
132.1

> <PUBCHEM_COORDINATE_TYPE>
2
5
10

$$$$
9799506
  SciTegic09112316443D

 49 51  0  0  1  0            999 V2000
   -4.4093    0.0316    1.0703 O   0  0
   -4.0690   -2.8635    0.5920 O   0  0
   -0.8373   -0.7406   -2.0999 O   0  0
   -0.4154    2.5290    1.3667 O   0  0
    0.8802    2.0914   -1.7405 O   0  0
    7.7576   -1.8786    1.0605 O   0  0
   -5.3149   -0.7753    0.2916 C   0  0
   -4.5962   -1.9620   -0.3854 C   0  0  1  0  0  0
   -3.4300   -1.4943   -1.2508 C   0  0
   -2.6390   -0.4262   -0.5502 C   0  0
   -3.1671    0.2656    0.5450 C   0  0
   -6.3750   -1.2755    1.2871 C   0  0
   -6.0176    0.1301   -0.7361 C   0  0
   -1.3584   -0.0947   -1.0143 C   0  0
   -2.4087    1.2484    1.1878 C   0  0
   -0.6078    0.8940   -0.3779 C   0  0
   -1.1316    1.5626    0.7256 C   0  0
    0.7257    1.2289   -0.8658 C   0  0
    1.9008    0.4822   -0.3056 C   0  0
   -0.5734    3.8676    0.9017 C   0  0
    3.1417    0.7384   -0.7455 C   0  0
    4.3549    0.0505   -0.2700 C   0  0
    4.3286   -0.6090    0.9480 C   0  0
    5.4988    0.0767   -1.0513 C   0  0
    5.4776   -1.2601    1.3972 C   0  0
    6.6478   -0.5745   -0.6022 C   0  0
    6.6372   -1.2429    0.6219 C   0  0
   -5.3039   -2.5372   -0.9945 H   0  0
   -3.8064   -1.0874   -2.1966 H   0  0
   -2.7891   -2.3561   -1.4725 H   0  0
   -5.9151   -1.8423    2.1044 H   0  0
   -6.8962   -0.4343    1.7592 H   0  0
   -7.1186   -1.9120    0.7964 H   0  0
   -6.5385    0.9536   -0.2335 H   0  0
   -5.3081    0.6018   -1.4234 H   0  0
   -6.7484   -0.4308   -1.3279 H   0  0
   -2.8179    1.7744    2.0475 H   0  0
   -3.7031   -3.6305    0.1194 H   0  0
   -1.5370   -1.1762   -2.6111 H   0  0
    1.6718   -0.2720    0.4385 H   0  0
   -1.5901    4.2198    1.1029 H   0  0
   -0.3577    3.9452   -0.1679 H   0  0
    0.1298    4.5038    1.4462 H   0  0
    3.3048    1.4898   -1.5144 H   0  0
    3.4565   -0.6304    1.5937 H   0  0
    5.5224    0.5918   -2.0080 H   0  0
    5.4652   -1.7753    2.3538 H   0  0
    7.5447   -0.5540   -1.2156 H   0  0
    8.4631   -1.7647    0.4007 H   0  0
  1  7  1  0
  1 11  1  0
  2  8  1  0
  2 38  1  0
  3 14  1  0
  3 39  1  0
  4 17  1  0
  4 20  1  0
  5 18  2  0
  6 27  1  0
  6 49  1  0
  7  8  1  0
  7 12  1  0
  7 13  1  0
  8  9  1  0
  8 28  1  0
  9 10  1  0
  9 29  1  0
  9 30  1  0
 10 11  1  0
 10 14  2  0
 11 15  2  0
 12 31  1  0
 12 32  1  0
 12 33  1  0
 13 34  1  0
 13 35  1  0
 13 36  1  0
 14 16  1  0
 15 17  1  0
 15 37  1  0
 16 17  2  0
 16 18  1  0
 18 19  1  0
 19 21  2  0
 19 40  1  0
 20 41  1  0
 20 42  1  0
 20 43  1  0
 21 22  1  0
 21 44  1  0
 22 23  2  0
 22 24  1  0
 23 25  1  0
 23 45  1  0
 24 26  2  0
 24 46  1  0
 25 27  2  0
 25 47  1  0
 26 27  1  0
 26 48  1  0
M  END
> <Name>
9799506

> <OBJECTID>
9223372440585043982

> <PUBCHEM_COMPOUND_CID>
9799506

> <PUBCHEM_CONFORMER_RMSD>
0.8

> <PUBCHEM_CONFORMER_DIVERSEORDER>
1
26
8
20
23
24
7
10
19
18
4
12
16
28
9
11
21
3
25
2
27
22
17
5
15
13
6
14

> <PUBCHEM_MMFF94_PARTIAL_CHARGES>
35
1 -0.36
10 -0.14
11 0.08
14 0.08
15 -0.15
16 0.09
17 0.08
18 0.47
19 -0.14
2 -0.68
20 0.28
21 -0.18
22 0.03
23 -0.15
24 -0.15
25 -0.15
26 -0.15
27 0.08
3 -0.53
37 0.15
38 0.4
39 0.45
4 -0.36
40 0.15
44 0.15
45 0.15
46 0.15
47 0.15
48 0.15
49 0.45
5 -0.57
6 -0.53
7 0.28
8 0.28
9 0.14

> <PUBCHEM_EFFECTIVE_ROTOR_COUNT>
4.8

> <PUBCHEM_PHARMACOPHORE_FEATURES>
11
1 1 acceptor
1 2 acceptor
1 2 donor
1 3 donor
1 4 acceptor
1 5 acceptor
1 6 donor
3 7 12 13 hydrophobe
6 1 7 8 9 10 11 rings
6 10 11 14 15 16 17 rings
6 22 23 24 25 26 27 rings

> <PUBCHEM_HEAVY_ATOM_COUNT>
27

> <PUBCHEM_ATOM_DEF_STEREO_COUNT>
0

> <PUBCHEM_ATOM_UDEF_STEREO_COUNT>
1

> <PUBCHEM_BOND_DEF_STEREO_COUNT>
1

> <PUBCHEM_BOND_UDEF_STEREO_COUNT>
0

> <PUBCHEM_ISOTOPIC_ATOM_COUNT>
0

> <PUBCHEM_COMPONENT_COUNT>
1

> <PUBCHEM_CACTVS_TAUTO_COUNT>
21

> <PUBCHEM_CONFORMER_ID>
95875200000001

> <PUBCHEM_MMFF94_ENERGY>
103.684

> <PUBCHEM_FEATURE_SELFOVERLAP>
55.851

> <PUBCHEM_SHAPE_FINGERPRINT>
10 15 17060330834828618570
10319926 262 17203336610685945380
10369192 42 8214144070947996923
10674148 151 16153418429032286149
10930396 42 17416940912109901610
11456790 92 18271541874977693083
117089 54 15795700211481755291
12166972 35 18040719194791446236
12236239 1 18408328791256287476
12516196 113 18113619001967354060
12592606 108 18261109712553298875
12596602 18 18410290307748172016
12633257 1 16343416306265239592
12760667 363 18409724062790001863
12788726 201 18411141294560241728
12895836 83 8574425418050087344
12895837 130 10014995696398081002
13533116 47 18334297617286966772
13540713 4 17200811998976922828
13540713 5 17271726389233145029
13583140 156 17273681075999307364
13668630 136 17676207957648231322
14068700 675 18408041814490020920
15064981 194 8645901447867990238
15183329 4 13551184485798193900
15188451 53 18411695466217454224
15348495 7 16558742464600248262
17780758 139 18342734096591034114
17857418 61 18333732420764598922
17913733 40 15267066913199194950
1813 80 18261684713820722900
19784866 240 18040157322500009876
20028762 73 18410575081197183138
20691028 202 12606819485458253338
21033648 29 16056614135683503409
21637258 2 18333728035323284940
21756936 100 11023814085823541700
21792934 111 17917991677013913177
22061861 79 16370445562035493386
22224240 67 15051734183680897701
23198884 109 11746937573053249938
23366157 5 17909265033465499593
23522609 53 17898322496066673276
23559900 14 18263077885084007729
23845131 108 16624364367482467817
2838139 119 10159701274409071834
3004659 81 18259986002614962588
3383291 50 18059297664674168479
3472631 163 9151165472599048458
351380 3 18334294275511993718
392239 28 15769781272938643195
4015057 19 16226062106113234628
4409770 3 18264765472709625237
465052 167 18261114080413395230
5104073 3 17630056090495719691
559249 180 18408322177465282103
57724786 102 13758060932049850834
6058803 2 17484524795983867853
7970288 3 18260543416641090642
9896288 288 18057049003831775280
999808 66 17023197049914213787

> <PUBCHEM_SHAPE_MULTIPOLES>
520.43
17.79
2.61
1.51
19.48
1.8
-0.15
-13.82
4.3
-1.35
0.85
0.09
0.03
-1.33

> <PUBCHEM_SHAPE_SELFOVERLAP>
1128.503

> <PUBCHEM_SHAPE_VOLUME>
285.1

> <PUBCHEM_COORDINATE_TYPE>
2
5
10

$$$$
9858729
  SciTegic09112316443D

 57 56  0  0  1  0            999 V2000
   -1.3609   -1.4493   -2.5908 O   0  0
   -4.2197   -2.0707   -0.4091 O   0  0
   -4.9207    2.7822    0.2043 O   0  0
    6.4623    1.3889   -1.6702 O   0  0
    5.7059    0.1041    0.0521 O   0  0
   -1.5849    1.8350    1.7858 C   0  0
   -0.5219    2.3177    0.7959 C   0  0
   -2.0642   -2.0580   -1.5081 C   0  0  1  0  0  0
   -2.9577    2.4833    1.5675 C   0  0
   -1.2437   -1.8995   -0.2166 C   0  0
    0.8250    1.6052    0.9667 C   0  0
   -0.0740   -2.8835   -0.0698 C   0  0
   -3.4549   -1.4007   -1.4067 C   0  0  2  0  0  0
   -3.6240    2.1841    0.2155 C   0  0  1  0  0  0
    1.8612    2.0288   -0.0787 C   0  0
    0.7016   -2.7132    1.2384 C   0  0
    3.2106    1.3251    0.0870 C   0  0
   -3.3167    0.0730   -1.0983 C   0  0
   -3.8029    0.7115   -0.0221 C   0  0
    1.9066   -3.6522    1.2974 C   0  0
    4.2477    1.7609   -0.9423 C   0  0
    2.6994   -3.4563    2.5798 C   0  0
    5.5258    0.9838   -0.7775 C   0  0
   -1.2498    2.0697    2.8038 H   0  0
   -1.6731    0.7436    1.7375 H   0  0
   -0.3803    3.3992    0.9108 H   0  0
   -0.8660    2.1492   -0.2304 H   0  0
   -2.1951   -3.1233   -1.7327 H   0  0
   -0.8369   -0.8834   -0.1667 H   0  0
   -1.8931   -2.0364    0.6565 H   0  0
   -2.8718    3.5715    1.6850 H   0  0
   -3.6277    2.1632    2.3773 H   0  0
    0.6741    0.5243    0.9007 H   0  0
    1.2158    1.8105    1.9707 H   0  0
   -0.4574   -3.9095   -0.1308 H   0  0
    0.6123   -2.7509   -0.9148 H   0  0
   -3.9758   -1.5044   -2.3662 H   0  0
   -3.0505    2.6556   -0.5900 H   0  0
    1.4678    1.8196   -1.0812 H   0  0
    2.0113    3.1137   -0.0164 H   0  0
    1.0473   -1.6782    1.3283 H   0  0
    0.0360   -2.9067    2.0880 H   0  0
    3.5959    1.5163    1.0969 H   0  0
    3.0538    0.2407    0.0167 H   0  0
   -2.7797    0.6607   -1.8407 H   0  0
   -4.3567    0.1616    0.7341 H   0  0
    2.5640   -3.4704    0.4391 H   0  0
    1.5706   -4.6936    1.2350 H   0  0
    3.8668    1.5849   -1.9542 H   0  0
    4.4679    2.8268   -0.8206 H   0  0
   -0.5148   -1.9165   -2.6931 H   0  0
    2.0793   -3.6581    3.4590 H   0  0
    3.0786   -2.4320    2.6539 H   0  0
    3.5555   -4.1378    2.6040 H   0  0
   -5.1369   -1.7549   -0.4802 H   0  0
   -5.3072    2.6345   -0.6761 H   0  0
    7.3018    0.8909   -1.5718 H   0  0
  1  8  1  0
  1 51  1  0
  2 13  1  0
  2 55  1  0
  3 14  1  0
  3 56  1  0
  4 23  1  0
  4 57  1  0
  5 23  2  0
  6  7  1  0
  6  9  1  0
  6 24  1  0
  6 25  1  0
  7 11  1  0
  7 26  1  0
  7 27  1  0
  8 10  1  0
  8 13  1  0
  8 28  1  0
  9 14  1  0
  9 31  1  0
  9 32  1  0
 10 12  1  0
 10 29  1  0
 10 30  1  0
 11 15  1  0
 11 33  1  0
 11 34  1  0
 12 16  1  0
 12 35  1  0
 12 36  1  0
 13 18  1  0
 13 37  1  0
 14 19  1  0
 14 38  1  0
 15 17  1  0
 15 39  1  0
 15 40  1  0
 16 20  1  0
 16 41  1  0
 16 42  1  0
 17 21  1  0
 17 43  1  0
 17 44  1  0
 18 19  2  0
 18 45  1  0
 19 46  1  0
 20 22  1  0
 20 47  1  0
 20 48  1  0
 21 23  1  0
 21 49  1  0
 21 50  1  0
 22 52  1  0
 22 53  1  0
 22 54  1  0
M  END
> <Name>
9858729

> <OBJECTID>
9223372444880011278

> <PUBCHEM_COMPOUND_CID>
9858729

> <PUBCHEM_CONFORMER_RMSD>
1.4

> <PUBCHEM_CONFORMER_DIVERSEORDER>
1
44
13
56
95
136
45
24
21
140
67
82
96
111
60
121
32
4
9
84
76
6
132
8
22
30
98
88
119
42
104
116
130
122
33
91
71
113
124
34
103
106
138
50
41
87
49
74
137
35
66
31
101
47
48
70
79
26
123
68
10
77
126
65
89
134
38
110
28
73
52
12
20
53
37
109
72
51
58
16
69
86
2
81
14
117
78
102
114
59
7
27
11
43
112
29
131
40
36
61
15
129
64
5
133
25
63
125
85
115
18
83
105
57
120
90
62
107
23
93
92
17
139
46
54
80
3
127
99
19
55
94
100
128
118
135
39
75
97
108

> <PUBCHEM_MMFF94_PARTIAL_CHARGES>
18
1 -0.68
13 0.42
14 0.42
18 -0.29
19 -0.29
2 -0.68
21 0.06
23 0.66
3 -0.68
4 -0.65
45 0.15
46 0.15
5 -0.57
51 0.4
55 0.4
56 0.4
57 0.5
8 0.28

> <PUBCHEM_EFFECTIVE_ROTOR_COUNT>
15

> <PUBCHEM_PHARMACOPHORE_FEATURES>
11
1 1 acceptor
1 1 donor
1 2 acceptor
1 2 donor
1 22 hydrophobe
1 3 acceptor
1 3 donor
1 4 acceptor
1 5 acceptor
3 4 5 23 anion
4 10 12 16 20 hydrophobe

> <PUBCHEM_HEAVY_ATOM_COUNT>
23

> <PUBCHEM_ATOM_DEF_STEREO_COUNT>
3

> <PUBCHEM_ATOM_UDEF_STEREO_COUNT>
0

> <PUBCHEM_BOND_DEF_STEREO_COUNT>
1

> <PUBCHEM_BOND_UDEF_STEREO_COUNT>
0

> <PUBCHEM_ISOTOPIC_ATOM_COUNT>
0

> <PUBCHEM_COMPONENT_COUNT>
1

> <PUBCHEM_CACTVS_TAUTO_COUNT>
1

> <PUBCHEM_CONFORMER_ID>
00966EA900000001

> <PUBCHEM_MMFF94_ENERGY>
15.2687

> <PUBCHEM_FEATURE_SELFOVERLAP>
55.879

> <PUBCHEM_SHAPE_FINGERPRINT>
11756154 5 17974292332653240746
13941206 138 18188211000319407170
14117953 113 17043725717224001573
14251740 79 18341618182309321740
14251757 17 17417548942045219524
14251757 5 18196941186973298124
14289585 56 17677051240228034388
14931854 50 18340481252768019831
15322534 239 18411142463334736222
16120349 306 18411130316972044856
23559900 14 17703785955404125696
474144 1 18265886965288224290
5282940 2 18337106761462076946
57828716 94 17531806828373230162
7064713 232 17268330740242719083

> <PUBCHEM_SHAPE_MULTIPOLES>
443.98
11.11
5
2.03
13.06
3.56
-0.1
-7.01
4.37
0.35
-2.4
0.35
1.13
-4.67

> <PUBCHEM_SHAPE_SELFOVERLAP>
832.78

> <PUBCHEM_SHAPE_VOLUME>
275.1

> <PUBCHEM_COORDINATE_TYPE>
2
5
10

$$$$
9861088
  SciTegic09112316443D

 35 36  0  0  0  0            999 V2000
   -6.5140   -1.3080   -0.5748 O   0  0
   -6.8355    1.3801    0.0556 O   0  0
    0.7957   -2.2010    0.2006 O   0  0
    4.6761    2.8491    0.3401 O   0  0
    2.7054    2.4408   -0.7164 O   0  0
    1.8023   -0.0883    0.0098 N   0  0
    3.1853   -0.3952    0.0001 C   0  0
    4.1258    0.6165   -0.1016 C   0  0
   -3.0583   -0.3421    0.1238 C   0  0
    3.5642   -1.7249    0.0948 C   0  0
   -4.1676   -1.1163   -0.2166 C   0  0
    5.4822    0.2905   -0.1091 C   0  0
   -1.7333   -0.9412    0.1489 C   0  0
   -3.2199    1.0069    0.4398 C   0  0
   -5.4382   -0.5416   -0.2408 C   0  0
    0.7422   -0.9805    0.1052 C   0  0
    4.9205   -2.0510    0.0873 C   0  0
    5.8794   -1.0433   -0.0147 C   0  0
   -0.5674   -0.2595    0.0808 C   0  0
   -5.5997    0.8073    0.0753 C   0  0
   -4.4905    1.5817    0.4155 C   0  0
    3.7452    2.0199   -0.2035 C   0  0
    1.5766    0.9005   -0.0591 H   0  0
    2.8930   -2.5658    0.1763 H   0  0
   -4.0544   -2.1691   -0.4666 H   0  0
    6.2541    1.0501   -0.2013 H   0  0
   -1.7140   -2.0267    0.2185 H   0  0
   -2.3896    1.6436    0.7307 H   0  0
    5.2314   -3.0892    0.1599 H   0  0
    6.9352   -1.2978   -0.0237 H   0  0
   -0.5356    0.8200   -0.0167 H   0  0
   -4.6032    2.6327    0.6682 H   0  0
   -7.3099   -0.7493   -0.5403 H   0  0
   -6.7540    2.3177    0.3006 H   0  0
    4.4126    3.7913    0.2678 H   0  0
  1 15  1  0
  1 33  1  0
  2 20  1  0
  2 34  1  0
  3 16  2  0
  4 22  1  0
  4 35  1  0
  5 22  2  0
  6  7  1  0
  6 16  1  0
  6 23  1  0
  7  8  1  0
  7 10  2  0
  8 12  2  0
  8 22  1  0
  9 11  2  0
  9 13  1  0
  9 14  1  0
 10 17  1  0
 10 24  1  0
 11 15  1  0
 11 25  1  0
 12 18  1  0
 12 26  1  0
 13 19  2  0
 13 27  1  0
 14 21  2  0
 14 28  1  0
 15 20  2  0
 16 19  1  0
 17 18  2  0
 17 29  1  0
 18 30  1  0
 19 31  1  0
 20 21  1  0
 21 32  1  0
M  END
> <Name>
9861088

> <OBJECTID>
9223372449174978574

> <PUBCHEM_COMPOUND_CID>
9861088

> <PUBCHEM_CONFORMER_RMSD>
0.8

> <PUBCHEM_CONFORMER_DIVERSEORDER>
1
15
9
6
13
7
14
2
3
12
16
5
10
11
8
4
17

> <PUBCHEM_MMFF94_PARTIAL_CHARGES>
35
1 -0.53
10 -0.15
11 -0.15
12 -0.15
13 -0.18
14 -0.15
15 0.08
16 0.62
17 -0.15
18 -0.15
19 -0.14
2 -0.53
20 0.08
21 -0.15
22 0.63
23 0.37
24 0.15
25 0.15
26 0.15
27 0.15
28 0.15
29 0.15
3 -0.57
30 0.15
31 0.15
32 0.15
33 0.45
34 0.45
35 0.5
4 -0.65
5 -0.57
6 -0.55
7 0.12
8 0.09
9 0.03

> <PUBCHEM_EFFECTIVE_ROTOR_COUNT>
5

> <PUBCHEM_PHARMACOPHORE_FEATURES>
9
1 1 donor
1 2 donor
1 3 acceptor
1 4 acceptor
1 5 acceptor
1 6 donor
3 4 5 22 anion
6 7 8 10 12 17 18 rings
6 9 11 14 15 20 21 rings

> <PUBCHEM_HEAVY_ATOM_COUNT>
22

> <PUBCHEM_ATOM_DEF_STEREO_COUNT>
0

> <PUBCHEM_ATOM_UDEF_STEREO_COUNT>
0

> <PUBCHEM_BOND_DEF_STEREO_COUNT>
1

> <PUBCHEM_BOND_UDEF_STEREO_COUNT>
0

> <PUBCHEM_ISOTOPIC_ATOM_COUNT>
0

> <PUBCHEM_COMPONENT_COUNT>
1

> <PUBCHEM_CACTVS_TAUTO_COUNT>
30

> <PUBCHEM_CONFORMER_ID>
96770

> <PUBCHEM_MMFF94_ENERGY>
70.4041

> <PUBCHEM_FEATURE_SELFOVERLAP>
45.733

> <PUBCHEM_SHAPE_FINGERPRINT>
10411042 1 17977665304580840762
10595046 47 18342174501001887159
10688039 33 17677051244496510732
10763959 59 17749104478514788469
11045977 3 17967258614946674947
11089746 13 18333450923896385570
12107183 9 17619349805772073963
12166972 35 18412829092153862296
12236239 1 18272087193025012815
12403259 415 17822283570138867549
12616971 3 18202557389061961799
13167372 99 18341614780695281905
13533116 47 18413108381361113864
13785724 45 17836367043308943934
14251764 18 18260828194526246834
14464042 87 18060144206389635664
14528608 73 18411138047644021911
14933364 13 18409169904950945067
15183329 4 18413111636550607536
15196674 1 18411138047707442305
17834072 33 18413669119290339711
17844677 252 18411426098363219363
18681886 176 18272364266013907162
20028762 73 18271806774890254350
20157964 124 18411982481433094258
20281389 69 18334012762144353953
21033648 144 18260821652610580094
21033648 29 16950551186525833687
21315763 129 18411136896466017165
21315763 28 18411417306839847791
21315764 268 18408317795945162357
21709351 56 18411132507157283463
221357 26 18335137566576008540
23402539 116 18343297055398309711
23536379 177 18413107234393959835
23559900 14 18412539912100456435
245318 6 17534640492084629853
29717793 49 17988928846969434934
3004659 81 18412262822622705152
335352 9 18409451393524980782
34797466 226 17703801356976636845
351380 180 18408887330119741264
4073 2 18040722514748730490
4214541 1 18411138022048252395
4325135 7 18343581850479692311
5104073 3 18333452057862658955
513532 50 18201732769012191004
542803 24 18407758127731422051
54446538 1 18412824685511589361
59755656 520 17676487246428858643
67856867 119 18413105082441017753
7495541 125 17561078141884060659
9971528 1 17967816058999916708

> <PUBCHEM_SHAPE_MULTIPOLES>
418.42
17.92
2.4
0.66
13.14
1.06
0
1.66
0.81
-2.57
0.02
0.08
0.04
-0.69

> <PUBCHEM_SHAPE_SELFOVERLAP>
903.994

> <PUBCHEM_SHAPE_VOLUME>
227.4

> <PUBCHEM_COORDINATE_TYPE>
2
5
10

$$$$
9909740
  SciTegic09112316443D

 68 68  0  0  1  0            999 V2000
   -2.0634   -1.6431   -0.5364 O   0  0
    2.1459    0.4258   -1.8029 O   0  0
    0.3363    1.0026    2.5652 O   0  0
    2.3301    2.7727    1.0945 O   0  0
    0.0649   -0.7202   -1.3801 C   0  0
    0.6546   -2.0946   -1.7469 C   0  0
   -0.5939   -0.0769   -2.6155 C   0  0
   -0.9468   -0.8656   -0.2614 C   0  0
    1.2500    0.1809   -0.9899 C   0  0
   -0.8132   -0.2943    0.9497 C   0  0
    1.3386    0.7689    0.3832 C   0  0
    0.3547    0.5215    1.2689 C   0  0
    2.5009    1.6090    0.7302 C   0  0
    1.4369   -2.6550   -0.6035 C   0  0
   -1.2308    1.2256   -2.2544 C   0  0
   -1.8509   -0.4661    2.0340 C   0  0
    3.8817    0.9632    0.6467 C   0  0  1  0  0  0
    4.9695    1.9879    0.2904 C   0  0
    1.2423   -3.8282    0.0282 C   0  0
   -2.5351    1.5513   -2.3316 C   0  0
    4.1865    0.3003    1.9889 C   0  0
   -2.8225    0.6680    2.0420 C   0  0
    4.7207    2.6612   -1.0532 C   0  0
    0.1384   -4.7549   -0.4068 C   0  0
    2.0657   -4.3389    1.1764 C   0  0
   -3.1177    2.8833   -1.9523 C   0  0
   -3.5450    0.5457   -2.8165 C   0  0
   -4.1610    0.6055    1.9047 C   0  0
   -4.8483   -0.7225    1.7274 C   0  0
   -5.0892    1.7869    1.9211 C   0  0
    1.3551   -1.9830   -2.5866 H   0  0
   -0.1184   -2.7706   -2.1208 H   0  0
   -1.2867   -0.7843   -3.0766 H   0  0
    0.1567    0.1260   -3.3913 H   0  0
    2.2866   -2.0651   -0.2637 H   0  0
   -0.5508    2.0058   -1.9146 H   0  0
   -2.3403   -1.4391    1.9286 H   0  0
   -1.3819   -0.5377    3.0236 H   0  0
    3.8861    0.1838   -0.1217 H   0  0
   -2.0003   -1.9741   -1.4465 H   0  0
    5.0346    2.7613    1.0657 H   0  0
    5.9449    1.4873    0.2584 H   0  0
    5.1684   -0.1837    1.9718 H   0  0
    3.4396   -0.4648    2.2275 H   0  0
    4.1799    1.0318    2.8047 H   0  0
   -2.3890    1.6569    2.1889 H   0  0
    1.1386    1.5289    2.7169 H   0  0
    4.6549    1.9192   -1.8553 H   0  0
    3.8011    3.2529   -1.0545 H   0  0
    5.5485    3.3376   -1.2898 H   0  0
   -0.2440   -5.3161    0.4538 H   0  0
   -0.7293   -4.2430   -0.8281 H   0  0
    0.5176   -5.4783   -1.1356 H   0  0
    2.8711   -3.6436    1.4353 H   0  0
    2.5228   -5.3001    0.9202 H   0  0
    1.4415   -4.4718    2.0658 H   0  0
   -3.8702    2.7596   -1.1669 H   0  0
   -3.5885    3.3571   -2.8195 H   0  0
   -2.3495    3.5654   -1.5736 H   0  0
   -3.9996    0.0278   -1.9658 H   0  0
   -3.1478   -0.1933   -3.5143 H   0  0
   -4.3482    1.0556   -3.3617 H   0  0
   -4.2601   -1.4475    1.1607 H   0  0
   -5.7788   -0.5960    1.1616 H   0  0
   -5.1064   -1.1485    2.7021 H   0  0
   -5.6209    1.8690    0.9677 H   0  0
   -5.8235    1.6841    2.7263 H   0  0
   -4.5453    2.7237    2.0814 H   0  0
  1  8  1  0
  1 40  1  0
  2  9  2  0
  3 12  1  0
  3 47  1  0
  4 13  2  0
  5  6  1  0
  5  7  1  0
  5  8  1  0
  5  9  1  0
  6 14  1  0
  6 31  1  0
  6 32  1  0
  7 15  1  0
  7 33  1  0
  7 34  1  0
  8 10  2  0
  9 11  1  0
 10 12  1  0
 10 16  1  0
 11 12  2  0
 11 13  1  0
 13 17  1  0
 14 19  2  0
 14 35  1  0
 15 20  2  0
 15 36  1  0
 16 22  1  0
 16 37  1  0
 16 38  1  0
 17 18  1  0
 17 21  1  0
 17 39  1  0
 18 23  1  0
 18 41  1  0
 18 42  1  0
 19 24  1  0
 19 25  1  0
 20 26  1  0
 20 27  1  0
 21 43  1  0
 21 44  1  0
 21 45  1  0
 22 28  2  0
 22 46  1  0
 23 48  1  0
 23 49  1  0
 23 50  1  0
 24 51  1  0
 24 52  1  0
 24 53  1  0
 25 54  1  0
 25 55  1  0
 25 56  1  0
 26 57  1  0
 26 58  1  0
 26 59  1  0
 27 60  1  0
 27 61  1  0
 27 62  1  0
 28 29  1  0
 28 30  1  0
 29 63  1  0
 29 64  1  0
 29 65  1  0
 30 66  1  0
 30 67  1  0
 30 68  1  0
M  END
> <Name>
9909740

> <OBJECTID>
9223372453469945870

> <PUBCHEM_COMPOUND_CID>
9909740

> <PUBCHEM_CONFORMER_RMSD>
1

> <PUBCHEM_CONFORMER_DIVERSEORDER>
1
129
44
156
25
102
149
42
89
83
61
77
20
36
53
106
70
80
55
58
29
90
119
15
151
6
82
121
115
64
95
76
27
105
104
117
46
52
69
128
98
91
43
135
148
56
112
136
66
81
157
146
71
126
22
37
118
144
150
60
86
110
139
101
155
92
48
103
78
47
100
145
125
14
154
13
85
137
114
51
133
131
93
99
130
49
142
45
50
127
134
23
33
143
120
67
74
109
152
113
65
68
40
26
12
63
158
153
7
116
108
123
32
107
54
75
72
140
97
31
96
79
9
30
124
34
39
138
88
73
94
35
84
10
21
38
62
16
87
19
111
18
41
141
24
28
11
132
3
147
8
59
57
5
2
17
122
4

> <PUBCHEM_MMFF94_PARTIAL_CHARGES>
32
1 -0.53
10 -0.14
11 0.03
12 0.08
13 0.49
14 -0.29
15 -0.29
16 0.28
17 0.06
19 -0.28
2 -0.57
20 -0.28
22 -0.29
24 0.14
25 0.14
26 0.14
27 0.14
28 -0.28
29 0.14
3 -0.53
30 0.14
35 0.15
36 0.15
4 -0.57
40 0.45
46 0.15
47 0.45
5 0.2
6 0.14
7 0.14
8 -0.06
9 0.49

> <PUBCHEM_EFFECTIVE_ROTOR_COUNT>
9.2

> <PUBCHEM_PHARMACOPHORE_FEATURES>
10
1 1 donor
1 2 acceptor
1 21 hydrophobe
1 23 hydrophobe
1 3 donor
1 4 acceptor
3 19 24 25 hydrophobe
3 20 26 27 hydrophobe
3 28 29 30 hydrophobe
6 5 8 9 10 11 12 rings

> <PUBCHEM_HEAVY_ATOM_COUNT>
30

> <PUBCHEM_ATOM_DEF_STEREO_COUNT>
0

> <PUBCHEM_ATOM_UDEF_STEREO_COUNT>
1

> <PUBCHEM_BOND_DEF_STEREO_COUNT>
0

> <PUBCHEM_BOND_UDEF_STEREO_COUNT>
0

> <PUBCHEM_ISOTOPIC_ATOM_COUNT>
0

> <PUBCHEM_COMPONENT_COUNT>
1

> <PUBCHEM_CACTVS_TAUTO_COUNT>
19

> <PUBCHEM_CONFORMER_ID>
009735EC00000001

> <PUBCHEM_MMFF94_ENERGY>
61.042

> <PUBCHEM_FEATURE_SELFOVERLAP>
50.748

> <PUBCHEM_SHAPE_FINGERPRINT>
10032420 55 17916859248788169315
11578080 2 17899151424432287245
12156800 1 16227461637911348595
12592029 89 18194651857719660198
12788726 201 17320107112389127102
133893 2 18127958720589001702
13583140 156 18127701439516367441
15420108 30 17467106315143272941
15775530 1 18042402422333706839
17980427 23 17607828380302351619
17980427 26 18200326398559932615
1813 80 11674875615217721418
18915476 22 18264766571492563899
20600515 1 17401762424634911759
21033648 29 18044683948486921601
21120745 212 17112149979746959940
229495 10 18268714913748281205
23419403 2 17973166127835270483
244849 19 17972598792952231677
3759504 43 18056493952523645208
394222 165 18057581210493830902
4058900 60 18196683798073138952
469060 322 18337948017376199165
53917941 68 16558458764292460465
59755656 520 18202009871247664740
9981440 41 18190435264670581012

> <PUBCHEM_SHAPE_MULTIPOLES>
593.91
8.17
4.41
3.11
1.36
6.06
-0.61
-6.89
4.03
-3.73
-0.74
3.09
-1.18
0.86

> <PUBCHEM_SHAPE_SELFOVERLAP>
1206.328

> <PUBCHEM_SHAPE_VOLUME>
344.4

> <PUBCHEM_COORDINATE_TYPE>
2
5
10

$$$$
9929676
  SciTegic09112316442D

 65 64  0  0  1  0            999 V2000
    5.4641   -3.5950    0.0000 O   0  0
    3.7320   -2.5950    0.0000 O   0  0
    7.1962   -3.5950    0.0000 O   0  0
    2.8660   -1.0950    0.0000 O   0  0
   11.5263   -2.0950    0.0000 C   0  0
   12.3923   -2.5950    0.0000 C   0  0
   10.6603   -2.5950    0.0000 C   0  0
   13.2583   -2.0950    0.0000 C   0  0
    9.7942   -2.0950    0.0000 C   0  0
   14.9904    1.9050    0.0000 C   0  0
   14.1244    2.4050    0.0000 C   0  0
   14.9904    0.9050    0.0000 C   0  0
   14.1244    3.4050    0.0000 C   0  0
   14.1244   -2.5950    0.0000 C   0  0
    8.9282   -2.5950    0.0000 C   0  0
   14.9904   -1.0950    0.0000 C   0  0
   15.8564    0.4050    0.0000 C   0  0
   14.9904   -2.0950    0.0000 C   0  0
    6.3301   -2.0950    0.0000 C   0  0
    5.4641   -2.5950    0.0000 C   0  0
    8.0622   -2.0950    0.0000 C   0  0
   15.8564   -0.5950    0.0000 C   0  0
   13.2583    3.9050    0.0000 C   0  0
    7.1962   -2.5950    0.0000 C   0  0
    4.5981   -2.0950    0.0000 C   0  0
    2.8660   -2.0950    0.0000 C   0  0
    2.0000   -2.5950    0.0000 C   0  0
   11.9248   -1.6200    0.0000 H   0  0
   11.1278   -1.6200    0.0000 H   0  0
   11.9938   -3.0700    0.0000 H   0  0
   12.7908   -3.0700    0.0000 H   0  0
   10.2617   -3.0700    0.0000 H   0  0
   11.0588   -3.0700    0.0000 H   0  0
   13.6569   -1.6200    0.0000 H   0  0
   12.8598   -1.6200    0.0000 H   0  0
   10.1928   -1.6200    0.0000 H   0  0
    9.3957   -1.6200    0.0000 H   0  0
   15.6010    1.7973    0.0000 H   0  0
   15.2024    2.4876    0.0000 H   0  0
   13.5138    2.5127    0.0000 H   0  0
   13.9123    1.8224    0.0000 H   0  0
   14.3798    1.0127    0.0000 H   0  0
   14.7783    0.3224    0.0000 H   0  0
   14.7349    3.2973    0.0000 H   0  0
   14.3364    3.9876    0.0000 H   0  0
   14.1244   -3.2150    0.0000 H   0  0
    8.9282   -3.2150    0.0000 H   0  0
   16.3933    0.7150    0.0000 H   0  0
   14.7783   -0.5124    0.0000 H   0  0
   14.3798   -1.2027    0.0000 H   0  0
    6.7287   -1.6200    0.0000 H   0  0
    5.9316   -1.6200    0.0000 H   0  0
   15.5273   -2.4050    0.0000 H   0  0
    6.0010   -2.9050    0.0000 H   0  0
    8.0622   -1.4750    0.0000 H   0  0
   16.3933   -0.9050    0.0000 H   0  0
   13.5683    4.4419    0.0000 H   0  0
   12.7214    4.2150    0.0000 H   0  0
   12.9483    3.3681    0.0000 H   0  0
    4.9966   -1.6200    0.0000 H   0  0
    4.1996   -1.6200    0.0000 H   0  0
    4.9272   -3.9050    0.0000 H   0  0
    1.6900   -2.0581    0.0000 H   0  0
    1.4631   -2.9050    0.0000 H   0  0
    2.3100   -3.1319    0.0000 H   0  0
  1 20  1  0
  1 62  1  0
  2 25  1  0
  2 26  1  0
  3 24  2  0
  4 26  2  0
  5  6  1  0
  5  7  1  0
  5 28  1  0
  5 29  1  0
  6  8  1  0
  6 30  1  0
  6 31  1  0
  7  9  1  0
  7 32  1  0
  7 33  1  0
  8 14  1  0
  8 34  1  0
  8 35  1  0
  9 15  1  0
  9 36  1  0
  9 37  1  0
 10 11  1  0
 10 12  1  0
 10 38  1  0
 10 39  1  0
 11 13  1  0
 11 40  1  0
 11 41  1  0
 12 17  1  0
 12 42  1  0
 12 43  1  0
 13 23  1  0
 13 44  1  0
 13 45  1  0
 14 18  2  0
 14 46  1  0
 15 21  2  0
 15 47  1  0
 16 18  1  0
 16 22  1  0
 16 49  1  0
 16 50  1  0
 17 22  2  0
 17 48  1  0
 18 53  1  0
 19 20  1  0
 19 24  1  0
 19 51  1  0
 19 52  1  0
 20 25  1  0
 20 54  1  0
 21 24  1  0
 21 55  1  0
 22 56  1  0
 23 57  1  0
 23 58  1  0
 23 59  1  0
 25 60  1  0
 25 61  1  0
 26 27  1  0
 27 63  1  0
 27 64  1  0
 27 65  1  0
M  END
> <Name>
9929676

> <OBJECTID>
9223372457764913166

> <PUBCHEM_COMPOUND_CID>
9929676

> <PUBCHEM_COMPOUND_CANONICALIZED>
1

> <PUBCHEM_CACTVS_COMPLEXITY>
463

> <PUBCHEM_CACTVS_HBOND_ACCEPTOR>
4

> <PUBCHEM_CACTVS_HBOND_DONOR>
1

> <PUBCHEM_CACTVS_ROTATABLE_BOND>
18

> <PUBCHEM_CACTVS_SUBSKEYS>
AAADcfB4OAAAAAAAAAAAAAAAAAAAAAAAAAAAAAAAAAAAAAAAAAAAGgAACAAACBSggAICCAAABgCIAKDSCAAAAAAgAAAICAEAAEgBEBYAAQACQAAEoAALAYOCgAAAAAAAAAAAAAAAAAAAAAAAAAAAAAAAAA==

> <PUBCHEM_IUPAC_OPENEYE_NAME>
[(5E,12Z,15Z)-2-hydroxy-4-oxo-henicosa-5,12,15-trienyl] acetate

> <PUBCHEM_IUPAC_CAS_NAME>
acetic acid [(5E,12Z,15Z)-2-hydroxy-4-oxoheneicosa-5,12,15-trienyl] ester

> <PUBCHEM_IUPAC_NAME_MARKUP>
[(5<I>E</I>,12<I>Z</I>,15<I>Z</I>)-2-hydroxy-4-oxohenicosa-5,12,15-trienyl] acetate

> <PUBCHEM_IUPAC_NAME>
[(5E,12Z,15Z)-2-hydroxy-4-oxohenicosa-5,12,15-trienyl] acetate

> <PUBCHEM_IUPAC_SYSTEMATIC_NAME>
[(5E,12Z,15Z)-2-oxidanyl-4-oxidanylidene-henicosa-5,12,15-trienyl] ethanoate

> <PUBCHEM_IUPAC_TRADITIONAL_NAME>
acetic acid [(5E,12Z,15Z)-2-hydroxy-4-keto-heneicosa-5,12,15-trienyl] ester

> <PUBCHEM_IUPAC_INCHI>
InChI=1S/C23H38O4/c1-3-4-5-6-7-8-9-10-11-12-13-14-15-16-17-18-22(25)19-23(26)20-27-21(2)24/h7-8,10-11,17-18,23,26H,3-6,9,12-16,19-20H2,1-2H3/b8-7-,11-10-,18-17+

> <PUBCHEM_IUPAC_INCHIKEY>
YLWJMUPPJKELEC-GQQAEKEGSA-N

> <PUBCHEM_XLOGP3_AA>
5.8

> <PUBCHEM_EXACT_MASS>
378.27700969

> <PUBCHEM_MOLECULAR_FORMULA>
C23H38O4

> <PUBCHEM_MOLECULAR_WEIGHT>
378.5

> <PUBCHEM_OPENEYE_CAN_SMILES>
CCCCCC=CCC=CCCCCCC=CC(=O)CC(COC(=O)C)O

> <PUBCHEM_OPENEYE_ISO_SMILES>
CCCCC/C=C\C/C=C\CCCCC/C=C/C(=O)CC(COC(=O)C)O

> <PUBCHEM_CACTVS_TPSA>
63.6

> <PUBCHEM_MONOISOTOPIC_WEIGHT>
378.27700969

> <PUBCHEM_TOTAL_CHARGE>
0

> <PUBCHEM_HEAVY_ATOM_COUNT>
27

> <PUBCHEM_ATOM_DEF_STEREO_COUNT>
0

> <PUBCHEM_ATOM_UDEF_STEREO_COUNT>
1

> <PUBCHEM_BOND_DEF_STEREO_COUNT>
3

> <PUBCHEM_BOND_UDEF_STEREO_COUNT>
0

> <PUBCHEM_ISOTOPIC_ATOM_COUNT>
0

> <PUBCHEM_COMPONENT_COUNT>
1

> <PUBCHEM_CACTVS_TAUTO_COUNT>
-1

> <PUBCHEM_COORDINATE_TYPE>
1
5
255

> <PUBCHEM_BONDANNOTATIONS>
20  1  3

$$$$
10087955
  SciTegic09112316443D

 39 40  0  0  0  0            999 V2000
   -5.1403   -1.9390   -0.6775 O   0  0
    7.1687    0.7027   -0.0611 O   0  0
   -7.1143   -0.1486    0.1127 O   0  0
    0.9250    2.3816   -0.0927 O   0  0
    4.1104   -3.0746    0.7301 O   0  0
    2.2174   -2.5425   -0.4100 O   0  0
    1.6482    0.1495   -0.0064 N   0  0
    3.0594    0.2722   -0.0191 C   0  0
    3.8602   -0.8573    0.0208 C   0  0
   -3.1380    1.0413    0.0085 C   0  0
    3.6079    1.5436   -0.0728 C   0  0
   -3.4820   -0.2609   -0.3544 C   0  0
    5.2475   -0.7122    0.0069 C   0  0
   -4.8167   -0.6647   -0.3208 C   0  0
   -4.1288    1.9398    0.4047 C   0  0
   -1.7463    1.4624   -0.0266 C   0  0
    5.8150    0.5609   -0.0470 C   0  0
    4.9952    1.6888   -0.0868 C   0  0
   -5.8073    0.2337    0.0755 C   0  0
    0.7131    1.1758   -0.0421 C   0  0
   -5.4634    1.5361    0.4382 C   0  0
   -0.6793    0.6319   -0.0128 C   0  0
    3.2995   -2.2017    0.0743 C   0  0
   -5.1511   -2.9191    0.3585 C   0  0
    3.0517    2.4676   -0.1059 H   0  0
    1.2955   -0.8030    0.0363 H   0  0
   -2.7426   -0.9833   -0.6891 H   0  0
    5.9093   -1.5748    0.0231 H   0  0
   -3.8796    2.9584    0.6924 H   0  0
   -1.5858    2.5380   -0.0556 H   0  0
    5.4265    2.6856   -0.1290 H   0  0
   -6.2251    2.2460    0.7492 H   0  0
   -0.7877   -0.4455    0.0435 H   0  0
    7.3859    1.6500   -0.1001 H   0  0
   -7.6556    0.6024    0.4109 H   0  0
   -5.8829   -2.6576    1.1294 H   0  0
   -4.1557   -3.0177    0.8030 H   0  0
   -5.4345   -3.8793   -0.0812 H   0  0
    3.7266   -3.9769    0.7611 H   0  0
  1 14  1  0
  1 24  1  0
  2 17  1  0
  2 34  1  0
  3 19  1  0
  3 35  1  0
  4 20  2  0
  5 23  1  0
  5 39  1  0
  6 23  2  0
  7  8  1  0
  7 20  1  0
  7 26  1  0
  8  9  2  0
  8 11  1  0
  9 13  1  0
  9 23  1  0
 10 12  2  0
 10 15  1  0
 10 16  1  0
 11 18  2  0
 11 25  1  0
 12 14  1  0
 12 27  1  0
 13 17  2  0
 13 28  1  0
 14 19  2  0
 15 21  2  0
 15 29  1  0
 16 22  2  0
 16 30  1  0
 17 18  1  0
 18 31  1  0
 19 21  1  0
 20 22  1  0
 21 32  1  0
 22 33  1  0
 24 36  1  0
 24 37  1  0
 24 38  1  0
M  END
> <Name>
10087955

> <OBJECTID>
9223372462059880462

> <PUBCHEM_COMPOUND_CID>
10087955

> <PUBCHEM_CONFORMER_RMSD>
0.8

> <PUBCHEM_CONFORMER_DIVERSEORDER>
1
27
13
12
11
18
24
8
16
5
26
9
20
25
6
22
17
2
7
10
19
3
21
14
15
23
4

> <PUBCHEM_MMFF94_PARTIAL_CHARGES>
36
1 -0.36
10 0.03
11 -0.15
12 -0.15
13 -0.15
14 0.08
15 -0.15
16 -0.18
17 0.08
18 -0.15
19 0.08
2 -0.53
20 0.62
21 -0.15
22 -0.14
23 0.63
24 0.28
25 0.15
26 0.37
27 0.15
28 0.15
29 0.15
3 -0.53
30 0.15
31 0.15
32 0.15
33 0.15
34 0.45
35 0.45
39 0.5
4 -0.57
5 -0.65
6 -0.57
7 -0.55
8 0.12
9 0.09

> <PUBCHEM_EFFECTIVE_ROTOR_COUNT>
6

> <PUBCHEM_PHARMACOPHORE_FEATURES>
10
1 1 acceptor
1 2 donor
1 3 donor
1 4 acceptor
1 5 acceptor
1 6 acceptor
1 7 donor
3 5 6 23 anion
6 10 12 14 15 19 21 rings
6 8 9 11 13 17 18 rings

> <PUBCHEM_HEAVY_ATOM_COUNT>
24

> <PUBCHEM_ATOM_DEF_STEREO_COUNT>
0

> <PUBCHEM_ATOM_UDEF_STEREO_COUNT>
0

> <PUBCHEM_BOND_DEF_STEREO_COUNT>
1

> <PUBCHEM_BOND_UDEF_STEREO_COUNT>
0

> <PUBCHEM_ISOTOPIC_ATOM_COUNT>
0

> <PUBCHEM_COMPONENT_COUNT>
1

> <PUBCHEM_CACTVS_TAUTO_COUNT>
22

> <PUBCHEM_CONFORMER_ID>
0099EE1300000001

> <PUBCHEM_MMFF94_ENERGY>
86.7781

> <PUBCHEM_FEATURE_SELFOVERLAP>
50.805

> <PUBCHEM_SHAPE_FINGERPRINT>
10299344 5 18413110558519188237
10595046 47 18411700988944464913
10835480 77 18336257943076326565
11315181 36 17632578271475455369
11524674 6 16630808829203475653
11963148 33 18334849550470380762
12107183 9 17621043062189824697
12236239 1 18131071506711004912
12516196 113 18272087193004277752
12596602 18 17632297886739722280
12788726 201 17274546416702734017
13073987 5 18339644443163478417
13167823 11 18342455928538707397
13533116 47 18413107229940509760
14251764 18 18131635582794923929
14341114 176 18412549799573957981
14461889 52 18341043129670609592
15183329 4 18408882936674100803
15196674 1 18411418384422815519
15250474 111 18342162363419677327
15537594 2 18130783468860508783
15799311 1 18338250313895353123
15927050 60 17552071119298582540
16993427 108 16809242889424803698
16993438 75 17970637495894902043
17492 89 18123468268294354526
17844677 252 18412269410871207913
17857418 61 18411698781742257197
1813 80 17386012732468463341
20028762 73 18340200779310927578
20645477 70 18336828585494730186
21033648 29 14333123010303361897
21054139 6 18409447024910140350
21065198 48 18271528589457364329
21197605 99 18339645671561301486
21267235 1 18341616971856343260
21623969 137 18334586741030369003
220451 1 18411427189227202025
22224240 67 18409444813608754880
23522609 53 18193587555997419692
23559900 14 18340479088927941609
239999 70 18202289078819195028
3004659 81 18334859381449080024
338550 245 18336830900007635390
4073 2 18260834842407549747
4214541 1 18412826872235953673
4325135 7 18408604764210976516
4340502 62 18343578552129334008
5104073 3 18272088275435743985
5758199 1 18341331171905958064
6431902 208 18337672039879012335
67856867 119 18338238279387226413
7970288 3 17760927338724576842
999808 66 17968671501380954347

> <PUBCHEM_SHAPE_MULTIPOLES>
453.71
18.77
2.87
0.66
4.39
2.1
0.01
2.25
0.48
0.12
0.27
0.15
0.08
-0.68

> <PUBCHEM_SHAPE_SELFOVERLAP>
975.612

> <PUBCHEM_SHAPE_VOLUME>
248.5

> <PUBCHEM_COORDINATE_TYPE>
2
5
10

$$$$
10245047
  SciTegic09112316443D

 38 39  0  0  0  0            999 V2000
   -4.7931   -2.0014   -0.6541 O   0  0
   -6.8006   -0.2253    0.0819 O   0  0
    1.1982    2.4296   -0.1348 O   0  0
    4.4672   -3.0308   -0.4110 O   0  0
    2.5714   -2.4161    0.6819 O   0  0
    1.9565    0.2122    0.0083 N   0  0
    3.3656    0.3574    0.0012 C   0  0
   -2.8433    1.0263   -0.0264 C   0  0
    4.1846   -0.7575    0.0730 C   0  0
   -3.1640   -0.2895   -0.3606 C   0  0
   -4.4922   -0.7140   -0.3255 C   0  0
   -3.8509    1.9175    0.3426 C   0  0
   -1.4584    1.4690   -0.0630 C   0  0
    3.8944    1.6361   -0.0790 C   0  0
   -5.4997    0.1773    0.0436 C   0  0
   -5.1791    1.4932    0.3776 C   0  0
    5.5693   -0.5902    0.0645 C   0  0
    1.0054    1.2220   -0.0571 C   0  0
   -0.3783    0.6564   -0.0233 C   0  0
    5.2792    1.8035   -0.0877 C   0  0
    6.1166    0.6904   -0.0159 C   0  0
    3.6458   -2.1092    0.1595 C   0  0
   -4.7946   -2.9570    0.4045 C   0  0
   -2.4110   -1.0074   -0.6738 H   0  0
   -3.6200    2.9466    0.6078 H   0  0
    1.6191   -0.7451    0.0656 H   0  0
   -1.3150    2.5460   -0.1165 H   0  0
    3.3237    2.5500   -0.1373 H   0  0
   -5.9541    2.1977    0.6673 H   0  0
    6.2496   -1.4351    0.1331 H   0  0
   -0.4696   -0.4209    0.0579 H   0  0
    5.7070    2.8001   -0.1493 H   0  0
    7.1948    0.8214   -0.0193 H   0  0
   -7.3558    0.5236    0.3591 H   0  0
   -5.5354   -2.6895    1.1647 H   0  0
   -3.8006   -3.0290    0.8572 H   0  0
   -5.0596   -3.9317   -0.0141 H   0  0
    4.0977   -3.9374   -0.3491 H   0  0
  1 11  1  0
  1 23  1  0
  2 15  1  0
  2 34  1  0
  3 18  2  0
  4 22  1  0
  4 38  1  0
  5 22  2  0
  6  7  1  0
  6 18  1  0
  6 26  1  0
  7  9  1  0
  7 14  2  0
  8 10  2  0
  8 12  1  0
  8 13  1  0
  9 17  2  0
  9 22  1  0
 10 11  1  0
 10 24  1  0
 11 15  2  0
 12 16  2  0
 12 25  1  0
 13 19  2  0
 13 27  1  0
 14 20  1  0
 14 28  1  0
 15 16  1  0
 16 29  1  0
 17 21  1  0
 17 30  1  0
 18 19  1  0
 19 31  1  0
 20 21  2  0
 20 32  1  0
 21 33  1  0
 23 35  1  0
 23 36  1  0
 23 37  1  0
M  END
> <Name>
10245047

> <OBJECTID>
9223372466354847758

> <PUBCHEM_COMPOUND_CID>
10245047

> <PUBCHEM_CONFORMER_RMSD>
0.8

> <PUBCHEM_CONFORMER_DIVERSEORDER>
1
20
14
15
10
23
8
9
19
11
25
18
12
3
22
6
21
7
17
24
13
2
4
16
5

> <PUBCHEM_MMFF94_PARTIAL_CHARGES>
35
1 -0.36
10 -0.15
11 0.08
12 -0.15
13 -0.18
14 -0.15
15 0.08
16 -0.15
17 -0.15
18 0.62
19 -0.14
2 -0.53
20 -0.15
21 -0.15
22 0.63
23 0.28
24 0.15
25 0.15
26 0.37
27 0.15
28 0.15
29 0.15
3 -0.57
30 0.15
31 0.15
32 0.15
33 0.15
34 0.45
38 0.5
4 -0.65
5 -0.57
6 -0.55
7 0.12
8 0.03
9 0.09

> <PUBCHEM_EFFECTIVE_ROTOR_COUNT>
6

> <PUBCHEM_PHARMACOPHORE_FEATURES>
9
1 1 acceptor
1 2 donor
1 3 acceptor
1 4 acceptor
1 5 acceptor
1 6 donor
3 4 5 22 anion
6 7 9 14 17 20 21 rings
6 8 10 11 12 15 16 rings

> <PUBCHEM_HEAVY_ATOM_COUNT>
23

> <PUBCHEM_ATOM_DEF_STEREO_COUNT>
0

> <PUBCHEM_ATOM_UDEF_STEREO_COUNT>
0

> <PUBCHEM_BOND_DEF_STEREO_COUNT>
1

> <PUBCHEM_BOND_UDEF_STEREO_COUNT>
0

> <PUBCHEM_ISOTOPIC_ATOM_COUNT>
0

> <PUBCHEM_COMPONENT_COUNT>
1

> <PUBCHEM_CACTVS_TAUTO_COUNT>
9

> <PUBCHEM_CONFORMER_ID>
009C53B700000001

> <PUBCHEM_MMFF94_ENERGY>
84.674

> <PUBCHEM_FEATURE_SELFOVERLAP>
45.729

> <PUBCHEM_SHAPE_FINGERPRINT>
10595046 47 18412263947493121520
11315181 36 17632297904558115529
11524674 6 16702021998274393815
12107183 9 17693100660517484152
12236239 1 18201440255083480912
12516196 113 18344143691825538720
12596602 18 17775568654307046512
12788726 201 17346041060713446089
13073987 5 18341614780806292105
13167823 11 18412824659736465413
13533116 47 18343019973619248472
14251764 18 18131354112102631097
14341114 176 18411422800044691773
14461889 52 18340761659036364984
15183329 4 18409728460989266443
15196674 1 18411418388622785310
15250474 111 18342725334668528679
15537594 2 18202278125845722006
15799311 1 18338532892383162187
17492 89 18123749756234990958
17834072 33 18410855460355339960
17844677 252 18411424981419274769
17857418 61 18410290315778826613
1813 80 17313109617993638069
19427546 62 18263364862515204588
20028762 73 18339919313034888890
20645477 70 18336827494673257256
21033648 29 14117514281780769929
21065198 48 18272092647528243705
21197605 99 18339082721803013482
21267235 1 18341054021923962468
21623969 137 18187657906835687779
220451 1 18412272722100705749
22950370 63 18411982442414690500
23424784 1240 18339936964448356314
23522609 53 18193587560265993740
23559900 14 18339634668213675121
239999 70 18201444653968184294
3004659 81 18333732386526063000
314194 84 18272083920053964694
338550 245 18335142046005436838
4073 2 18261397792302929267
4214541 1 18412262822612688005
4325135 7 18409167718691493196
4340502 62 18342168991181364728
46194498 28 17458627838946936868
465052 167 18130508527230467414
5104073 3 18272369758780934097
559249 180 18411979127570090269
6431902 208 18265332983638531819
67856867 119 18337956821542957661
7495541 125 17917426575007569728
7970288 3 17761772871845889850
999808 66 17968390030651751211

> <PUBCHEM_SHAPE_MULTIPOLES>
439
17.58
2.94
0.66
4.61
2.03
0.01
3.22
0.15
-0.32
0.14
0.13
0.07
-0.37

> <PUBCHEM_SHAPE_SELFOVERLAP>
942.044

> <PUBCHEM_SHAPE_VOLUME>
240.9

> <PUBCHEM_COORDINATE_TYPE>
2
5
10

$$$$
10317069
  SciTegic09112316443D

 49 50  0  0  1  0            999 V2000
    5.6335    0.0349   -0.0673 O   0  0
    1.2158    1.3131   -0.6291 O   0  0
   -0.0079   -3.2757    0.0066 O   0  0
    4.0531   -1.6331    1.8561 O   0  0
   -0.6485   -0.8890   -2.3214 O   0  0
   -7.7965    1.6097    1.3618 O   0  0
    3.6085    0.9822    0.8389 C   0  0
    2.6358   -0.1522    0.6120 C   0  0
    4.6665    1.0667   -0.2721 C   0  0  1  0  0  0
    1.4788    0.0754   -0.1177 C   0  0
    2.9178   -1.4039    1.1382 C   0  0
    0.5827   -0.9731   -0.3260 C   0  0
    5.3646    2.4117   -0.2913 C   0  0
    0.8541   -2.2371    0.1979 C   0  0
    2.0216   -2.4524    0.9300 C   0  0
   -0.6391   -0.7494   -1.0913 C   0  0
    6.0753    2.8562    0.9568 C   0  0
    5.3535    3.1808   -1.3918 C   0  0
   -1.8739   -0.3161   -0.3566 C   0  0
   -3.0117   -0.0725   -1.0237 C   0  0
   -4.2693    0.3702   -0.3962 C   0  0
    0.1952   -4.0802   -1.1529 C   0  0
   -4.4599    0.1644    0.9604 C   0  0
   -5.2369    0.9831   -1.1757 C   0  0
   -5.6508    0.5830    1.5539 C   0  0
   -6.4277    1.4017   -0.5821 C   0  0
   -6.6347    1.2016    0.7827 C   0  0
    4.0712    0.8940    1.8300 H   0  0
    3.0434    1.9230    0.8884 H   0  0
    4.1975    0.8722   -1.2451 H   0  0
    2.2337   -3.4371    1.3394 H   0  0
    6.6091    3.8015    0.8100 H   0  0
    6.8130    2.1087    1.2652 H   0  0
    5.3649    3.0048    1.7758 H   0  0
    6.2858    0.0952   -0.7862 H   0  0
    5.8525    4.1440   -1.4135 H   0  0
    4.8446    2.8663   -2.2968 H   0  0
    0.3988    1.3065   -1.1526 H   0  0
   -1.7692   -0.1955    0.7154 H   0  0
    4.7349   -0.9805    1.6324 H   0  0
   -3.0465   -0.1858   -2.1047 H   0  0
   -0.6227   -4.8032   -1.2149 H   0  0
    1.1395   -4.6279   -1.0718 H   0  0
    0.1941   -3.4734   -2.0631 H   0  0
   -3.7322   -0.3318    1.5946 H   0  0
   -5.0898    1.1473   -2.2398 H   0  0
   -5.8089    0.4203    2.6167 H   0  0
   -7.1862    1.8827   -1.1939 H   0  0
   -8.3616    2.0160    0.6824 H   0  0
  1  9  1  0
  1 35  1  0
  2 10  1  0
  2 38  1  0
  3 14  1  0
  3 22  1  0
  4 11  1  0
  4 40  1  0
  5 16  2  0
  6 27  1  0
  6 49  1  0
  7  8  1  0
  7  9  1  0
  7 28  1  0
  7 29  1  0
  8 10  2  0
  8 11  1  0
  9 13  1  0
  9 30  1  0
 10 12  1  0
 11 15  2  0
 12 14  2  0
 12 16  1  0
 13 17  1  0
 13 18  2  0
 14 15  1  0
 15 31  1  0
 16 19  1  0
 17 32  1  0
 17 33  1  0
 17 34  1  0
 18 36  1  0
 18 37  1  0
 19 20  2  0
 19 39  1  0
 20 21  1  0
 20 41  1  0
 21 23  2  0
 21 24  1  0
 22 42  1  0
 22 43  1  0
 22 44  1  0
 23 25  1  0
 23 45  1  0
 24 26  2  0
 24 46  1  0
 25 27  2  0
 25 47  1  0
 26 27  1  0
 26 48  1  0
M  END
> <Name>
10317069

> <OBJECTID>
9223372470649815054

> <PUBCHEM_COMPOUND_CID>
10317069

> <PUBCHEM_CONFORMER_RMSD>
0.8

> <PUBCHEM_CONFORMER_DIVERSEORDER>
1
109
95
111
96
35
9
17
132
92
3
121
64
15
99
20
122
107
91
13
125
60
102
73
126
110
45
66
119
123
4
103
88
54
12
134
61
71
129
21
58
42
93
25
56
113
67
104
51
94
106
14
74
120
80
130
47
79
5
40
19
43
135
24
7
30
101
33
2
100
10
16
90
133
28
36
27
52
116
62
75
72
37
11
29
117
105
85
131
8
86
69
46
108
39
63
81
34
49
97
57
137
112
87
77
26
83
128
76
55
124
65
138
22
82
84
23
48
89
118
44
68
53
32
41
6
114
38
50
127
18
31
98
59
78
136
70
115

> <PUBCHEM_MMFF94_PARTIAL_CHARGES>
40
1 -0.68
10 0.08
11 0.08
12 0.09
13 -0.28
14 0.08
15 -0.15
16 0.47
17 0.14
18 -0.3
19 -0.14
2 -0.53
20 -0.18
21 0.03
22 0.28
23 -0.15
24 -0.15
25 -0.15
26 -0.15
27 0.08
3 -0.36
31 0.15
35 0.4
36 0.15
37 0.15
38 0.45
39 0.15
4 -0.53
40 0.45
41 0.15
45 0.15
46 0.15
47 0.15
48 0.15
49 0.45
5 -0.57
6 -0.53
7 0.14
8 -0.14
9 0.42

> <PUBCHEM_EFFECTIVE_ROTOR_COUNT>
7

> <PUBCHEM_PHARMACOPHORE_FEATURES>
9
1 1 acceptor
1 1 donor
1 2 donor
1 3 acceptor
1 4 donor
1 5 acceptor
1 6 donor
6 21 23 24 25 26 27 rings
6 8 10 11 12 14 15 rings

> <PUBCHEM_HEAVY_ATOM_COUNT>
27

> <PUBCHEM_ATOM_DEF_STEREO_COUNT>
0

> <PUBCHEM_ATOM_UDEF_STEREO_COUNT>
1

> <PUBCHEM_BOND_DEF_STEREO_COUNT>
1

> <PUBCHEM_BOND_UDEF_STEREO_COUNT>
0

> <PUBCHEM_ISOTOPIC_ATOM_COUNT>
0

> <PUBCHEM_COMPONENT_COUNT>
1

> <PUBCHEM_CACTVS_TAUTO_COUNT>
57

> <PUBCHEM_CONFORMER_ID>
009D6D0D00000001

> <PUBCHEM_MMFF94_ENERGY>
91.2125

> <PUBCHEM_FEATURE_SELFOVERLAP>
45.674

> <PUBCHEM_SHAPE_FINGERPRINT>
10 15 17385723633698240580
10670039 82 16200440126468510657
10674148 151 17917715695769625204
10693767 8 10015584978073697029
10794284 68 15506640777665833298
11796584 16 14189565347721329900
11823591 26 18340197574699821888
1200032 147 16485598454553529347
12390115 104 18269558397706269071
12596602 18 18411422821561596883
12623949 98 12252723891631092904
13540713 5 18120066594256843370
13631057 29 18129088100395651487
13782708 43 11675968496134384976
13885169 86 18336830917240797412
13955234 65 18189049803021739594
14251764 75 18336548338842217088
14341114 176 17968097482637407881
14341114 328 18272086076829245163
14747281 78 18264229010177370660
14790565 3 18336543927752490452
14840074 17 18202002127628066117
15183329 4 15338847451407524580
15238133 3 17988067976915371618
15475509 35 15719941412016443554
17980427 23 17749957785975287079
1813 80 12035730864735808931
18222031 100 9799421035687897332
19309040 13 18122916593020859892
19315092 285 8430057321563914604
1979834 28 17603589625258805348
21033650 10 15554175800739733467
21521239 73 11167940255740610557
21756936 100 18199180870620885846
21781055 127 17988927739569265602
21792964 463 17914638093630068745
221357 26 10879985849082154915
22224240 67 18040997367080516467
22393880 68 13398619555247914581
25147074 1 18046034290241274754
3178227 256 18261670360230209378
3411729 13 18333452036498584946
38570 142 18201729465301163876
397830 11 17458346351417392601
4340502 62 17167860868126666016
437795 70 15697730267164373929
5104073 3 18114170973610100338
5364581 5 17386860580814947517
59682541 52 16128389142269499052

> <PUBCHEM_SHAPE_MULTIPOLES>
520.43
17.48
3.58
1.54
17.92
2.23
-0.08
-19.39
4.67
-4.8
-0.57
0.5
0.07
-1.75

> <PUBCHEM_SHAPE_SELFOVERLAP>
1107.333

> <PUBCHEM_SHAPE_VOLUME>
289.9

> <PUBCHEM_COORDINATE_TYPE>
2
5
10

$$$$
10338075
  SciTegic09112316443D

 46 48  0  0  0  0            999 V2000
   -4.5232   -0.1934   -1.0519 O   0  0
   -0.6225    2.4456   -1.3993 O   0  0
   -0.9597   -0.7057    2.1787 O   0  0
    0.7033    2.1406    1.7306 O   0  0
    7.5173   -1.9193   -1.0715 O   0  0
   -5.3283   -1.2090   -0.4151 C   0  0
   -4.7294   -1.8556    0.8119 C   0  0
   -2.7673   -0.5019    0.6069 C   0  0
   -3.2990    0.1128   -0.5285 C   0  0
   -6.6510   -0.5334   -0.0341 C   0  0
   -5.5852   -2.2843   -1.4776 C   0  0
   -3.5295   -1.5287    1.2959 C   0  0
   -1.5022   -0.1199    1.0694 C   0  0
   -2.5721    1.1021   -1.1962 C   0  0
   -0.7778    0.8681    0.4008 C   0  0
   -1.3126    1.4787   -0.7314 C   0  0
    0.5405    1.2642    0.8842 C   0  0
    1.6871    0.4931    0.3176 C   0  0
    2.9360    0.7628    0.7265 C   0  0
   -0.8306    3.7938   -0.9842 C   0  0
    4.1406    0.0581    0.2534 C   0  0
    4.0918   -0.6421   -0.9410 C   0  0
    5.2982    0.1092    1.0127 C   0  0
    5.2320   -1.3097   -1.3882 C   0  0
    6.4384   -0.5583    0.5654 C   0  0
    6.4053   -1.2678   -0.6350 C   0  0
   -5.3078   -2.6234    1.3200 H   0  0
   -6.4835    0.2700    0.6934 H   0  0
   -7.1160   -0.0641   -0.9091 H   0  0
   -7.3662   -1.2431    0.3962 H   0  0
   -6.2526   -3.0725   -1.1120 H   0  0
   -6.0318   -1.8452   -2.3775 H   0  0
   -4.6450   -2.7501   -1.7967 H   0  0
   -3.1347   -2.0164    2.1787 H   0  0
   -2.9883    1.5789   -2.0806 H   0  0
   -0.1140   -0.2947    2.4173 H   0  0
    1.4461   -0.2849   -0.3973 H   0  0
    3.1147    1.5386    1.4675 H   0  0
   -0.6183    3.9177    0.0818 H   0  0
   -1.8595    4.1006   -1.1974 H   0  0
   -0.1510    4.4351   -1.5519 H   0  0
    3.2083   -0.6840   -1.5701 H   0  0
    5.3394    0.6564    1.9508 H   0  0
    5.1951   -1.8552   -2.3275 H   0  0
    7.3494   -0.5224    1.1567 H   0  0
    7.3153   -2.3565   -1.9165 H   0  0
  1  6  1  0
  1  9  1  0
  2 16  1  0
  2 20  1  0
  3 13  1  0
  3 36  1  0
  4 17  2  0
  5 26  1  0
  5 46  1  0
  6  7  1  0
  6 10  1  0
  6 11  1  0
  7 12  2  0
  7 27  1  0
  8  9  1  0
  8 12  1  0
  8 13  2  0
  9 14  2  0
 10 28  1  0
 10 29  1  0
 10 30  1  0
 11 31  1  0
 11 32  1  0
 11 33  1  0
 12 34  1  0
 13 15  1  0
 14 16  1  0
 14 35  1  0
 15 16  2  0
 15 17  1  0
 17 18  1  0
 18 19  2  0
 18 37  1  0
 19 21  1  0
 19 38  1  0
 20 39  1  0
 20 40  1  0
 20 41  1  0
 21 22  2  0
 21 23  1  0
 22 24  1  0
 22 42  1  0
 23 25  2  0
 23 43  1  0
 24 26  2  0
 24 44  1  0
 25 26  1  0
 25 45  1  0
M  END
> <Name>
10338075

> <OBJECTID>
9223372474944782350

> <PUBCHEM_COMPOUND_CID>
10338075

> <PUBCHEM_CONFORMER_RMSD>
0.8

> <PUBCHEM_CONFORMER_DIVERSEORDER>
1
4
6
9
3
5
10
2
11
7
8

> <PUBCHEM_MMFF94_PARTIAL_CHARGES>
35
1 -0.36
12 -0.18
13 0.08
14 -0.15
15 0.09
16 0.08
17 0.47
18 -0.14
19 -0.18
2 -0.36
20 0.28
21 0.03
22 -0.15
23 -0.15
24 -0.15
25 -0.15
26 0.08
27 0.15
3 -0.53
34 0.15
35 0.15
36 0.45
37 0.15
38 0.15
4 -0.57
42 0.15
43 0.15
44 0.15
45 0.15
46 0.45
5 -0.53
6 0.42
7 -0.29
8 0.03
9 0.08

> <PUBCHEM_EFFECTIVE_ROTOR_COUNT>
4.4

> <PUBCHEM_PHARMACOPHORE_FEATURES>
9
1 1 acceptor
1 2 acceptor
1 3 donor
1 4 acceptor
1 5 donor
3 6 10 11 hydrophobe
6 1 6 7 8 9 12 rings
6 21 22 23 24 25 26 rings
6 8 9 13 14 15 16 rings

> <PUBCHEM_HEAVY_ATOM_COUNT>
26

> <PUBCHEM_ATOM_DEF_STEREO_COUNT>
0

> <PUBCHEM_ATOM_UDEF_STEREO_COUNT>
0

> <PUBCHEM_BOND_DEF_STEREO_COUNT>
1

> <PUBCHEM_BOND_UDEF_STEREO_COUNT>
0

> <PUBCHEM_ISOTOPIC_ATOM_COUNT>
0

> <PUBCHEM_COMPONENT_COUNT>
1

> <PUBCHEM_CACTVS_TAUTO_COUNT>
21

> <PUBCHEM_CONFORMER_ID>
009DBF1B00000001

> <PUBCHEM_MMFF94_ENERGY>
98.6242

> <PUBCHEM_FEATURE_SELFOVERLAP>
45.701

> <PUBCHEM_SHAPE_FINGERPRINT>
10 15 12823291317174802610
10674148 151 18261109656386096889
10692045 39 10015044010358879036
12236239 1 16200431394351409523
12422481 6 14261090743487137461
12596602 18 15913332407223100394
12616971 3 15339109127507952432
12760667 363 18343023289402546771
12788726 201 17749097851559624521
12954195 1 18260824857136470557
13140716 1 12606267620856912255
13402501 40 18343022198671296742
13533116 47 17560518508046123880
13540713 5 17170658991933243992
13668630 136 18272369788941098194
13673619 4 18272371966837391160
13685833 64 18131632292195821490
13782708 43 18342452643258224874
13914758 101 17131839746878761737
14251764 30 18272367581332715310
14294032 229 17533494535065740605
14347332 77 18188762839186990178
14508225 48 18113338626049065044
14556957 393 17023477360611604012
14849402 71 14691982801938289146
15183329 4 16660363675545574334
15475509 8 18260547819082509821
15510800 12 18341059613312979743
15575132 122 14056987313765988319
16994733 274 12468622929592786599
17492 89 17757553328565143971
17870717 6 18040718069378087147
1813 80 17274835670171542488
18643901 69 18337962198894025830
19784866 240 18201723967795817777
19958102 18 17240475876090280666
2026 5 18266741269614899226
21267235 1 17822291336542343531
21307412 95 18261954145925912783
21424621 283 8574444144176252023
21623969 137 17632297865692283582
21637258 2 17775279491185842731
2297311 6 18187365419620916861
23198884 109 15213018254108662779
23559900 14 17750232676192281805
2838139 119 12612743618820218982
2916195 48 9007066763969874043
3004659 81 17603304877706775892
335352 9 17967806164249575063
437815 12 18342174483848580321
5104073 3 13470105463099876070
56616090 284 18040435498936666273
59755656 215 18186799166970040210
6608658 132 15647047119066873038

> <PUBCHEM_SHAPE_MULTIPOLES>
505.72
17.24
2.58
1.58
16.11
2.05
0.16
-14.78
-4.45
-1.2
-0.94
-0.13
-0.08
1.46

> <PUBCHEM_SHAPE_SELFOVERLAP>
1102.423

> <PUBCHEM_SHAPE_VOLUME>
276.4

> <PUBCHEM_COORDINATE_TYPE>
2
5
10

$$$$
10947890
  SciTegic09112316443D

 42 43  0  0  0  0            999 V2000
    5.8658    1.7654   -0.2319 O   0  0
    4.1101   -2.6454    0.4008 O   0  0
    6.2743   -0.9643   -0.0011 O   0  0
   -1.4607    2.3010    0.5342 O   0  0
   -5.1931   -2.8269   -0.1413 O   0  0
   -3.2222   -2.2078   -1.0893 O   0  0
   -2.4130    0.2134    0.0169 N   0  0
    2.4531    0.5929    0.2536 C   0  0
    2.6374   -0.7750    0.3717 C   0  0
    3.5230    1.4500    0.0519 C   0  0
    4.8122    0.9247   -0.0339 C   0  0
    3.9266   -1.3004    0.2859 C   0  0
    5.0141   -0.4506    0.0830 C   0  0
   -3.7866    0.4723    0.0277 C   0  0
    1.0911    1.1481    0.3441 C   0  0
   -4.7104   -0.5381   -0.2401 C   0  0
   -0.0329    0.4412    0.1544 C   0  0
   -4.2289    1.7647    0.3102 C   0  0
   -1.3657    1.1102    0.2613 C   0  0
   -6.0763   -0.2558   -0.2252 C   0  0
   -5.5949    2.0468    0.3253 C   0  0
   -6.5185    1.0366    0.0575 C   0  0
   -4.2824   -1.8989   -0.5398 C   0  0
    6.2319    2.0388   -1.5829 C   0  0
    2.9459   -3.4430    0.6069 C   0  0
    1.7809   -1.4079    0.5603 H   0  0
    3.3742    2.5230   -0.0410 H   0  0
    1.0382    2.2093    0.5762 H   0  0
   -2.1520   -0.7465   -0.1926 H   0  0
   -0.0334   -0.6097   -0.1094 H   0  0
   -3.5849    2.6040    0.5277 H   0  0
   -6.8215   -1.0165   -0.4429 H   0  0
   -5.9408    3.0529    0.5444 H   0  0
   -7.5820    1.2574    0.0661 H   0  0
    6.2193   -1.9304    0.1013 H   0  0
    5.4073    2.5267   -2.1121 H   0  0
    6.5168    1.1169   -2.0996 H   0  0
    7.0911    2.7150   -1.5749 H   0  0
    2.2560   -3.3808   -0.2418 H   0  0
    2.4606   -3.2116    1.5613 H   0  0
    3.2777   -4.4849    0.6670 H   0  0
   -4.8978   -3.7398   -0.3460 H   0  0
  1 11  1  0
  1 24  1  0
  2 12  1  0
  2 25  1  0
  3 13  1  0
  3 35  1  0
  4 19  2  0
  5 23  1  0
  5 42  1  0
  6 23  2  0
  7 14  1  0
  7 19  1  0
  7 29  1  0
  8  9  2  0
  8 10  1  0
  8 15  1  0
  9 12  1  0
  9 26  1  0
 10 11  2  0
 10 27  1  0
 11 13  1  0
 12 13  2  0
 14 16  1  0
 14 18  2  0
 15 17  2  0
 15 28  1  0
 16 20  2  0
 16 23  1  0
 17 19  1  0
 17 30  1  0
 18 21  1  0
 18 31  1  0
 20 22  1  0
 20 32  1  0
 21 22  2  0
 21 33  1  0
 22 34  1  0
 24 36  1  0
 24 37  1  0
 24 38  1  0
 25 39  1  0
 25 40  1  0
 25 41  1  0
M  END
> <Name>
10947890

> <OBJECTID>
9223372479239749646

> <PUBCHEM_COMPOUND_CID>
10947890

> <PUBCHEM_CONFORMER_RMSD>
0.8

> <PUBCHEM_CONFORMER_DIVERSEORDER>
1
7
17
13
9
10
16
12
4
15
11
18
3
5
2
19
8
6
14

> <PUBCHEM_MMFF94_PARTIAL_CHARGES>
36
1 -0.36
10 -0.15
11 0.08
12 0.08
13 0.08
14 0.12
15 -0.18
16 0.09
17 -0.14
18 -0.15
19 0.62
2 -0.36
20 -0.15
21 -0.15
22 -0.15
23 0.63
24 0.28
25 0.28
26 0.15
27 0.15
28 0.15
29 0.37
3 -0.53
30 0.15
31 0.15
32 0.15
33 0.15
34 0.15
35 0.45
4 -0.57
42 0.5
5 -0.65
6 -0.57
7 -0.55
8 0.03
9 -0.15

> <PUBCHEM_EFFECTIVE_ROTOR_COUNT>
7

> <PUBCHEM_PHARMACOPHORE_FEATURES>
10
1 1 acceptor
1 2 acceptor
1 3 donor
1 4 acceptor
1 5 acceptor
1 6 acceptor
1 7 donor
3 5 6 23 anion
6 14 16 18 20 21 22 rings
6 8 9 10 11 12 13 rings

> <PUBCHEM_HEAVY_ATOM_COUNT>
25

> <PUBCHEM_ATOM_DEF_STEREO_COUNT>
0

> <PUBCHEM_ATOM_UDEF_STEREO_COUNT>
0

> <PUBCHEM_BOND_DEF_STEREO_COUNT>
1

> <PUBCHEM_BOND_UDEF_STEREO_COUNT>
0

> <PUBCHEM_ISOTOPIC_ATOM_COUNT>
0

> <PUBCHEM_COMPONENT_COUNT>
1

> <PUBCHEM_CACTVS_TAUTO_COUNT>
6

> <PUBCHEM_CONFORMER_ID>
00A70D3200000001

> <PUBCHEM_MMFF94_ENERGY>
99.8219

> <PUBCHEM_FEATURE_SELFOVERLAP>
50.805

> <PUBCHEM_SHAPE_FINGERPRINT>
10299344 5 18412547608998257657
10595046 47 18410012130531072761
11135609 149 16445009939706308050
11315181 36 17132113555117660249
11524674 6 16774076280813467173
117089 54 17831022695628712115
11719270 70 18409725150303068282
11756154 67 17548700682267908966
11796584 16 18131352985834691063
12107183 9 17691971462133637609
12236239 1 18408041814236631413
12788726 201 17632301116549964833
12821665 9 18190748728595445077
13167823 11 18412541020244105987
13533116 47 18340205194040565488
14251764 18 18202284706690453105
14528608 73 18408608089106624116
15183329 4 18410851041176533075
15196674 1 18412260636247266715
15250474 111 18340755005589392503
15537594 2 18201716288273142367
15799311 1 18339654368711242227
17844677 252 18413393137566693025
17857418 61 18341045237871901347
19427546 62 18188495787116634664
20511986 3 18410000035992708037
21033648 29 14261064321117156985
220451 1 18342182167487044049
22950370 63 18411980260771647377
23522609 53 18198933372815027944
23559900 14 18272078457468150393
239999 70 18201442446318395550
3004659 81 18409166572161870578
335352 9 18342453769362647917
338550 245 18409730672665783198
4073 2 18187369860643579107
4214541 1 18413669106695633649
4325135 7 18407761447720212004
5104073 3 18201997729190516209
559249 180 18341327817393555213
6025842 7 18335423440010400902
999808 66 18114474439779072579

> <PUBCHEM_SHAPE_MULTIPOLES>
474.29
18.84
3.1
0.82
2.13
2.29
-0.18
-1.94
-2.69
-0.77
-0.02
-0.45
-0.09
-2.32

> <PUBCHEM_SHAPE_SELFOVERLAP>
1015.221

> <PUBCHEM_SHAPE_VOLUME>
261.9

> <PUBCHEM_COORDINATE_TYPE>
2
5
10

$$$$
11024779
  SciTegic09112316443D

 43 44  0  0  0  0            999 V2000
    6.0745    1.8827   -0.2545 O   0  0
    4.4462   -2.5188    0.7011 O   0  0
    6.5629   -0.8070    0.1910 O   0  0
   -7.6248    1.0272   -0.0437 O   0  0
   -1.2915    2.2535    0.3970 O   0  0
   -4.8349   -3.0294    0.0890 O   0  0
   -2.8744   -2.4218   -0.8873 O   0  0
   -2.1550    0.1005    0.0342 N   0  0
    2.6756    0.6519    0.2876 C   0  0
   -3.5544    0.3195    0.0113 C   0  0
    2.9177   -0.7030    0.5127 C   0  0
    3.7390    1.5171    0.0301 C   0  0
    5.0447    1.0272   -0.0023 C   0  0
    4.2232   -1.1930    0.4805 C   0  0
    5.2868   -0.3280    0.2229 C   0  0
   -4.4245   -0.7406   -0.1844 C   0  0
    1.3143    1.1629    0.3212 C   0  0
   -4.0209    1.6120    0.1887 C   0  0
   -5.7987   -0.5019   -0.2033 C   0  0
    0.1967    0.4154    0.1764 C   0  0
   -1.1570    1.0487    0.2182 C   0  0
   -6.2841    0.7939   -0.0261 C   0  0
   -5.3950    1.8508    0.1701 C   0  0
   -3.9500   -2.1057   -0.3729 C   0  0
    6.4484    2.0622   -1.6191 C   0  0
    4.4351   -3.3762   -0.4386 C   0  0
    2.1191   -1.4046    0.7376 H   0  0
    3.5622    2.5758   -0.1475 H   0  0
    1.2234    2.2371    0.4661 H   0  0
   -1.8641   -0.8647   -0.0977 H   0  0
   -3.4075    2.4858    0.3456 H   0  0
   -6.5126   -1.3055   -0.3674 H   0  0
    0.2366   -0.6541    0.0025 H   0  0
   -5.7619    2.8644    0.3094 H   0  0
    6.5445   -1.7546    0.4097 H   0  0
    5.6160    2.4825   -2.1924 H   0  0
    6.7668    1.1124   -2.0602 H   0  0
    7.2869    2.7630   -1.6552 H   0  0
    5.1897   -3.0646   -1.1676 H   0  0
    3.4439   -3.3796   -0.9032 H   0  0
    4.6687   -4.3912   -0.1058 H   0  0
   -7.7812    1.9772    0.0943 H   0  0
   -4.5083   -3.9452   -0.0411 H   0  0
  1 13  1  0
  1 25  1  0
  2 14  1  0
  2 26  1  0
  3 15  1  0
  3 35  1  0
  4 22  1  0
  4 42  1  0
  5 21  2  0
  6 24  1  0
  6 43  1  0
  7 24  2  0
  8 10  1  0
  8 21  1  0
  8 30  1  0
  9 11  2  0
  9 12  1  0
  9 17  1  0
 10 16  2  0
 10 18  1  0
 11 14  1  0
 11 27  1  0
 12 13  2  0
 12 28  1  0
 13 15  1  0
 14 15  2  0
 16 19  1  0
 16 24  1  0
 17 20  2  0
 17 29  1  0
 18 23  2  0
 18 31  1  0
 19 22  2  0
 19 32  1  0
 20 21  1  0
 20 33  1  0
 22 23  1  0
 23 34  1  0
 25 36  1  0
 25 37  1  0
 25 38  1  0
 26 39  1  0
 26 40  1  0
 26 41  1  0
M  END
> <Name>
11024779

> <OBJECTID>
9223372483534716942

> <PUBCHEM_COMPOUND_CID>
11024779

> <PUBCHEM_CONFORMER_RMSD>
0.8

> <PUBCHEM_CONFORMER_DIVERSEORDER>
1
8
15
12
18
4
13
3
19
14
10
6
17
2
5
16
9
11
7

> <PUBCHEM_MMFF94_PARTIAL_CHARGES>
37
1 -0.36
10 0.12
11 -0.15
12 -0.15
13 0.08
14 0.08
15 0.08
16 0.09
17 -0.18
18 -0.15
19 -0.15
2 -0.36
20 -0.14
21 0.62
22 0.08
23 -0.15
24 0.63
25 0.28
26 0.28
27 0.15
28 0.15
29 0.15
3 -0.53
30 0.37
31 0.15
32 0.15
33 0.15
34 0.15
35 0.45
4 -0.53
42 0.45
43 0.5
5 -0.57
6 -0.65
7 -0.57
8 -0.55
9 0.03

> <PUBCHEM_EFFECTIVE_ROTOR_COUNT>
7

> <PUBCHEM_PHARMACOPHORE_FEATURES>
11
1 1 acceptor
1 2 acceptor
1 3 donor
1 4 donor
1 5 acceptor
1 6 acceptor
1 7 acceptor
1 8 donor
3 6 7 24 anion
6 10 16 18 19 22 23 rings
6 9 11 12 13 14 15 rings

> <PUBCHEM_HEAVY_ATOM_COUNT>
26

> <PUBCHEM_ATOM_DEF_STEREO_COUNT>
0

> <PUBCHEM_ATOM_UDEF_STEREO_COUNT>
0

> <PUBCHEM_BOND_DEF_STEREO_COUNT>
1

> <PUBCHEM_BOND_UDEF_STEREO_COUNT>
0

> <PUBCHEM_ISOTOPIC_ATOM_COUNT>
0

> <PUBCHEM_COMPONENT_COUNT>
1

> <PUBCHEM_CACTVS_TAUTO_COUNT>
16

> <PUBCHEM_CONFORMER_ID>
00A8398B00000001

> <PUBCHEM_MMFF94_ENERGY>
102.9955

> <PUBCHEM_FEATURE_SELFOVERLAP>
55.881

> <PUBCHEM_SHAPE_FINGERPRINT>
10299344 5 18411138034980705033
10462674 296 17044018758860182402
10595046 47 18409449197868342376
11315181 36 17275386534445390385
11524674 6 17060336336391497071
11796584 16 18131071545318094998
12107183 9 17836650716922983520
12236239 1 18333449858749855197
12788726 201 17632583708149613657
13167823 11 18410289224535529539
13533116 47 18341330003125876712
14251764 18 18272652359840902801
14933364 13 18408323289287292465
15001296 14 18260824865178188683
15183329 4 18412543197987509225
15250474 111 18341599460536816430
15799311 1 18341062851506460242
17844677 252 18412267237417205281
17857418 61 18341890779456600474
19427546 62 18188494696284631776
21033648 29 13829847959341342073
220451 1 18341900700868126929
23522609 53 18198650798442753560
23559900 14 18271516611305493401
255183 451 18125447398347543150
3004659 81 18336263458093253234
335352 9 18413385463409356661
4073 2 18114186375294050426
4214541 1 18412260645069257993
4325135 7 18334858325051064996
5104073 3 18272366477415188715
559249 180 18412821392068297327
59755656 520 17240199941700048795
6025842 7 18408326571501610540
6437827 68 18342173332718353403
999808 66 18041008371319563883

> <PUBCHEM_SHAPE_MULTIPOLES>
489
20.44
3.06
0.8
3.2
2.4
-0.17
-1.67
-2.41
-1.32
-0.42
-0.78
-0.1
-1.58

> <PUBCHEM_SHAPE_SELFOVERLAP>
1047.846

> <PUBCHEM_SHAPE_VOLUME>
269.9

> <PUBCHEM_COORDINATE_TYPE>
2
5
10

$$$$
11046840
  SciTegic09112316443D

 51 53  0  0  0  0            999 V2000
   -4.8241    0.2815    0.9878 O   0  0
   -1.3331    0.4027   -2.3615 O   0  0
   -0.9529   -2.3668    1.5208 O   0  0
    0.2834   -2.4545   -1.5947 O   0  0
    7.3967    1.4992    0.5673 O   0  0
   -5.4902    1.3981    0.3688 C   0  0
   -5.3410    1.3739   -1.1610 C   0  0
   -3.8767    1.3682   -1.5766 C   0  0
   -3.1094    0.3773   -0.7527 C   0  0
   -3.6149   -0.0940    0.4645 C   0  0
   -6.9769    1.2488    0.7236 C   0  0
   -4.9676    2.6997    0.9956 C   0  0
   -1.8521   -0.0642   -1.1871 C   0  0
   -2.8866   -1.0203    1.2165 C   0  0
   -1.1233   -0.9817   -0.4300 C   0  0
   -1.6421   -1.4621    0.7697 C   0  0
    0.1822   -1.4399   -0.8925 C   0  0
    1.4005   -0.6711   -0.4715 C   0  0
   -1.5642   -2.8009    2.7337 C   0  0
    2.6227   -1.0728   -0.8506 C   0  0
    3.8774   -0.3961   -0.4775 C   0  0
    3.8924    0.4504    0.6189 C   0  0
    5.0180   -0.6203   -1.2313 C   0  0
    5.0806    1.0903    0.9715 C   0  0
    6.2063    0.0196   -0.8788 C   0  0
    6.2376    0.8749    0.2226 C   0  0
    7.3575    2.3601    1.7046 C   0  0
   -5.8577    2.2226   -1.6247 H   0  0
   -5.8092    0.4597   -1.5521 H   0  0
   -3.4369    2.3634   -1.4444 H   0  0
   -3.8185    1.1162   -2.6419 H   0  0
   -7.3750    0.3007    0.3434 H   0  0
   -7.1201    1.2274    1.8102 H   0  0
   -7.5758    2.0673    0.3106 H   0  0
   -5.1313    2.6989    2.0797 H   0  0
   -3.8881    2.8178    0.8565 H   0  0
   -5.4676    3.5766    0.5715 H   0  0
   -3.3451   -1.3520    2.1424 H   0  0
   -0.4851   -0.0228   -2.5640 H   0  0
    1.2194    0.2097    0.1336 H   0  0
   -2.5000   -3.3383    2.5457 H   0  0
   -1.6896   -1.9748    3.4421 H   0  0
   -0.8784   -3.5156    3.2008 H   0  0
    2.7388   -1.9532   -1.4783 H   0  0
    3.0219    0.6297    1.2421 H   0  0
    5.0092   -1.2826   -2.0929 H   0  0
    5.0361    1.7375    1.8409 H   0  0
    7.1044   -0.1518   -1.4660 H   0  0
    8.3637    2.7724    1.8327 H   0  0
    7.1198    1.8072    2.6197 H   0  0
    6.6827    3.2079    1.5445 H   0  0
  1  6  1  0
  1 10  1  0
  2 13  1  0
  2 39  1  0
  3 16  1  0
  3 19  1  0
  4 17  2  0
  5 26  1  0
  5 27  1  0
  6  7  1  0
  6 11  1  0
  6 12  1  0
  7  8  1  0
  7 28  1  0
  7 29  1  0
  8  9  1  0
  8 30  1  0
  8 31  1  0
  9 10  1  0
  9 13  2  0
 10 14  2  0
 11 32  1  0
 11 33  1  0
 11 34  1  0
 12 35  1  0
 12 36  1  0
 12 37  1  0
 13 15  1  0
 14 16  1  0
 14 38  1  0
 15 16  2  0
 15 17  1  0
 17 18  1  0
 18 20  2  0
 18 40  1  0
 19 41  1  0
 19 42  1  0
 19 43  1  0
 20 21  1  0
 20 44  1  0
 21 22  2  0
 21 23  1  0
 22 24  1  0
 22 45  1  0
 23 25  2  0
 23 46  1  0
 24 26  2  0
 24 47  1  0
 25 26  1  0
 25 48  1  0
 27 49  1  0
 27 50  1  0
 27 51  1  0
M  END
> <Name>
11046840

> <OBJECTID>
9223372487829684238

> <PUBCHEM_COMPOUND_CID>
11046840

> <PUBCHEM_CONFORMER_RMSD>
0.8

> <PUBCHEM_CONFORMER_DIVERSEORDER>
7
28
8
4
12
9
21
14
25
6
13
2
23
26
22
10
11
18
19
1
24
20
3
17
16
5
27
15

> <PUBCHEM_MMFF94_PARTIAL_CHARGES>
32
1 -0.36
10 0.08
13 0.08
14 -0.15
15 0.09
16 0.08
17 0.47
18 -0.14
19 0.28
2 -0.53
20 -0.18
21 0.03
22 -0.15
23 -0.15
24 -0.15
25 -0.15
26 0.08
27 0.28
3 -0.36
38 0.15
39 0.45
4 -0.57
40 0.15
44 0.15
45 0.15
46 0.15
47 0.15
48 0.15
5 -0.36
6 0.28
8 0.14
9 -0.14

> <PUBCHEM_EFFECTIVE_ROTOR_COUNT>
5.8

> <PUBCHEM_PHARMACOPHORE_FEATURES>
9
1 1 acceptor
1 2 donor
1 3 acceptor
1 4 acceptor
1 5 acceptor
3 6 11 12 hydrophobe
6 1 6 7 8 9 10 rings
6 21 22 23 24 25 26 rings
6 9 10 13 14 15 16 rings

> <PUBCHEM_HEAVY_ATOM_COUNT>
27

> <PUBCHEM_ATOM_DEF_STEREO_COUNT>
0

> <PUBCHEM_ATOM_UDEF_STEREO_COUNT>
0

> <PUBCHEM_BOND_DEF_STEREO_COUNT>
1

> <PUBCHEM_BOND_UDEF_STEREO_COUNT>
0

> <PUBCHEM_ISOTOPIC_ATOM_COUNT>
0

> <PUBCHEM_COMPONENT_COUNT>
1

> <PUBCHEM_CACTVS_TAUTO_COUNT>
5

> <PUBCHEM_CONFORMER_ID>
00A88FB800000007

> <PUBCHEM_MMFF94_ENERGY>
109.5667

> <PUBCHEM_FEATURE_SELFOVERLAP>
45.701

> <PUBCHEM_SHAPE_FINGERPRINT>
10 15 17240208737597969804
10074138 170 17458915945569456339
10319926 262 17895201030100197866
10554248 39 17203336602940173196
10670039 82 13470699139665668232
10692045 39 17970339330975497938
12035758 1 17967543363237168965
12236239 1 16630526202558487039
12403259 118 18262242252178478942
12422481 6 16009307583310738923
12596602 18 14996289097604921612
12633257 1 17603592949384053310
12838862 33 17676203551755259293
12895837 130 18059852921596779348
13140716 1 17170147883126069509
13402501 40 18343302552603449336
13668630 136 8142084260543705780
13690498 29 15840684414686178357
13911987 19 15482673472731582095
14020679 6 18113338643344666984
14251764 30 11025798699810812532
14556957 393 14836133168861560816
15064981 194 16414637227498978153
15082195 135 14908180876749714792
15183329 4 15123791777587040820
15326921 28 16951663832122033421
15575132 122 17203331044656841081
16110190 28 17603870056870011388
16988056 13 12592580564522125986
16994733 274 18059573534659814769
17980427 23 18040724705192439063
1813 80 13118289122649563646
18643901 69 10087648117008661153
19377110 9 15502376768688840380
19438510 23 18411698781594688266
19784866 240 10809351031263512247
20028762 73 12468354644503365856
2026 5 11097866202951314129
20554085 129 17895178975485181389
20642791 239 16343694448326847147
21033648 29 18411698825024363030
21267235 1 12822999921472140429
21298829 104 17846781806129997928
21304303 64 17988929959609019265
21307412 95 10951756483491604245
21401589 2 18335417950467281227
21424621 283 18338241453499342497
22122407 14 18059862800364549248
22224240 67 18041002817668249995
2748736 6 18131626794928099584
2838139 119 18059293158424416053
2916195 48 18409732816344690757
3004659 81 14261343648494252354
474113 269 13912608299266258761
5104073 3 17096360631641396241
5364581 5 17825671320690172220
54039377 194 13262668211623733592
56616090 284 12967123909039336423
5718773 13 10953724605168513984
59682541 35 18336276691335878977
6608658 132 15482685567174923842
7970288 3 11746933187997662080
999808 66 12396291552764334984

> <PUBCHEM_SHAPE_MULTIPOLES>
526.3
18.87
2.5
1.94
20.56
0.39
-0.32
-16.8
-4.67
-0.86
-1.4
-0.44
0.62
2.56

> <PUBCHEM_SHAPE_SELFOVERLAP>
1135.097

> <PUBCHEM_SHAPE_VOLUME>
290.6

> <PUBCHEM_COORDINATE_TYPE>
2
5
10

$$$$
11175902
  SciTegic09112316443D

 56 56  0  0  1  0            999 V2000
   -0.5873    0.4276   -2.2397 O   0  0
    1.2144    2.2013   -0.6916 O   0  0
    1.3752   -2.2077    0.9061 O   0  0
   -1.3644    1.6430    0.9235 O   0  0
    3.4289   -0.2492    1.8009 O   0  0
   -0.3568   -1.1506   -0.4335 C   0  0  1  0  0  0
   -0.4304    0.3338   -0.8337 C   0  0  1  0  0  0
    0.8930    0.8979   -0.4066 C   0  0
    0.9522   -1.2190    0.3240 C   0  0
   -1.5031   -1.6930    0.4074 C   0  0
    1.6887    0.0571    0.2633 C   0  0
   -1.5325    1.1202   -0.1775 C   0  0
    3.0022    0.3546    0.8051 C   0  0
   -2.8362    1.2123   -0.9548 C   0  0
    3.8443    1.4030    0.0769 C   0  0
   -1.3275   -3.1568    0.6900 C   0  0
    5.3572    1.1399    0.1335 C   0  0
   -1.7173   -4.1966   -0.0718 C   0  0
   -4.0032    1.4301   -0.0408 C   0  0
    6.1406    2.2218   -0.6143 C   0  0
    5.6731   -0.2332   -0.4624 C   0  0
   -2.4100   -3.9608   -1.3876 C   0  0
   -1.5102   -5.6448    0.2703 C   0  0
   -4.4870    2.6068    0.4005 C   0  0
   -3.8383    3.9023   -0.0069 C   0  0
   -5.6655    2.7602    1.3196 C   0  0
   -0.2273   -1.7655   -1.3354 H   0  0
   -2.4698   -1.5179   -0.0734 H   0  0
   -1.5517   -1.1777    1.3756 H   0  0
   -0.4098    1.3425   -2.5159 H   0  0
   -2.7484    1.9961   -1.7128 H   0  0
   -3.0124    0.2731   -1.4912 H   0  0
    3.5543    1.4357   -0.9798 H   0  0
    3.6222    2.3773    0.5277 H   0  0
   -0.8374   -3.3884    1.6348 H   0  0
    5.6825    1.1416    1.1813 H   0  0
    0.4562    2.6044   -1.1469 H   0  0
   -4.4992    0.5207    0.2956 H   0  0
    7.2183    2.0409   -0.5443 H   0  0
    5.8686    2.2492   -1.6749 H   0  0
    5.9378    3.2094   -0.1867 H   0  0
    5.2206   -1.0468    0.1117 H   0  0
    6.7545   -0.4093   -0.4679 H   0  0
    5.3181   -0.3094   -1.4961 H   0  0
   -2.4586   -2.9150   -1.6979 H   0  0
   -3.4362   -4.3408   -1.3410 H   0  0
   -1.8844   -4.4983   -2.1848 H   0  0
   -2.4720   -6.1642    0.3291 H   0  0
   -0.8933   -6.1332   -0.4908 H   0  0
   -1.0065   -5.7627    1.2354 H   0  0
   -3.6132    4.5003    0.8834 H   0  0
   -4.5223    4.4787   -0.6388 H   0  0
   -2.8973    3.7907   -0.5494 H   0  0
   -5.3637    3.2522    2.2497 H   0  0
   -6.4457    3.3612    0.8417 H   0  0
   -6.1026    1.7906    1.5804 H   0  0
  1  7  1  0
  1 30  1  0
  2  8  1  0
  2 37  1  0
  3  9  2  0
  4 12  2  0
  5 13  2  0
  6  7  1  0
  6  9  1  0
  6 10  1  0
  6 27  1  0
  7  8  1  0
  7 12  1  0
  8 11  2  0
  9 11  1  0
 10 16  1  0
 10 28  1  0
 10 29  1  0
 11 13  1  0
 12 14  1  0
 13 15  1  0
 14 19  1  0
 14 31  1  0
 14 32  1  0
 15 17  1  0
 15 33  1  0
 15 34  1  0
 16 18  2  0
 16 35  1  0
 17 20  1  0
 17 21  1  0
 17 36  1  0
 18 22  1  0
 18 23  1  0
 19 24  2  0
 19 38  1  0
 20 39  1  0
 20 40  1  0
 20 41  1  0
 21 42  1  0
 21 43  1  0
 21 44  1  0
 22 45  1  0
 22 46  1  0
 22 47  1  0
 23 48  1  0
 23 49  1  0
 23 50  1  0
 24 25  1  0
 24 26  1  0
 25 51  1  0
 25 52  1  0
 25 53  1  0
 26 54  1  0
 26 55  1  0
 26 56  1  0
M  END
> <Name>
11175902

> <OBJECTID>
9223372492124651534

> <PUBCHEM_COMPOUND_CID>
11175902

> <PUBCHEM_CONFORMER_RMSD>
1

> <PUBCHEM_CONFORMER_DIVERSEORDER>
3
34
117
88
141
103
128
95
148
78
60
151
18
44
84
145
43
110
96
4
58
68
127
144
113
56
47
87
153
115
154
140
143
69
16
139
135
29
119
57
82
99
111
97
92
50
76
89
85
72
132
122
51
22
63
23
55
80
102
19
17
125
124
107
155
83
142
37
100
32
134
21
147
106
48
35
104
39
30
61
91
101
98
138
156
31
118
114
149
59
27
38
108
120
25
26
146
94
14
49
131
42
20
79
65
77
93
24
81
136
15
157
86
52
75
66
41
116
45
28
9
130
10
133
137
67
70
54
73
129
2
33
152
112
36
109
40
62
46
74
150
11
7
126
90
123
1
105
71
64
53
12
5
6
13
121
8

> <PUBCHEM_MMFF94_PARTIAL_CHARGES>
27
1 -0.68
10 0.14
11 0.03
12 0.45
13 0.49
14 0.2
15 0.06
16 -0.29
18 -0.28
19 -0.29
2 -0.53
22 0.14
23 0.14
24 -0.28
25 0.14
26 0.14
3 -0.57
30 0.4
35 0.15
37 0.45
38 0.15
4 -0.57
5 -0.57
6 0.06
7 0.48
8 -0.06
9 0.49

> <PUBCHEM_EFFECTIVE_ROTOR_COUNT>
8.4

> <PUBCHEM_PHARMACOPHORE_FEATURES>
10
1 1 acceptor
1 1 donor
1 2 donor
1 3 acceptor
1 4 acceptor
1 5 acceptor
3 17 20 21 hydrophobe
3 18 22 23 hydrophobe
3 24 25 26 hydrophobe
5 6 7 8 9 11 rings

> <PUBCHEM_HEAVY_ATOM_COUNT>
26

> <PUBCHEM_ATOM_DEF_STEREO_COUNT>
2

> <PUBCHEM_ATOM_UDEF_STEREO_COUNT>
0

> <PUBCHEM_BOND_DEF_STEREO_COUNT>
0

> <PUBCHEM_BOND_UDEF_STEREO_COUNT>
0

> <PUBCHEM_ISOTOPIC_ATOM_COUNT>
0

> <PUBCHEM_COMPONENT_COUNT>
1

> <PUBCHEM_CACTVS_TAUTO_COUNT>
36

> <PUBCHEM_CONFORMER_ID>
00AA87DE00000003

> <PUBCHEM_MMFF94_ENERGY>
42.1388

> <PUBCHEM_FEATURE_SELFOVERLAP>
50.749

> <PUBCHEM_SHAPE_FINGERPRINT>
10411042 1 17689437508686147930
10493431 412 18334858298838194756
11115154 58 17760637462939489543
12293681 160 17774439369676292417
12390115 104 18340778082358626345
12549972 3 17774426292080709042
12788726 201 18193261104191237515
13009979 54 17755869962797640783
13140716 1 17904764728104029299
13540713 5 18114725123840020778
13757389 114 18337121119701648556
14790565 3 18265896856650732020
14866123 147 18409727400048675890
15230672 131 18336553699652941166
15927050 60 18340487776834735863
16087824 20 18337952416035276231
17980427 26 18052811451858879759
18785283 64 17976253539238027683
20739085 24 17973168322458343220
21033648 29 18342166735416998600
21120745 212 17975983377220661165
21304303 172 18125162886427851759
21756936 100 18342450444029442316
23558518 356 17972606759974543820
23559900 14 18412261732450000596
23598288 3 18198064887740880100
25147074 1 17969200366120570890
283562 15 18045774856714772498
3178227 256 17979360754797828787
38695281 34 18337391513535803021
4058900 60 18125168138655890377
5104073 3 18115013221867474080
5486654 2 18412256260187132781
59755656 520 18411417280605580348
633830 44 18128248978937402381
77188 2 17474389553069152951
7808743 9 18409447012041498016
9658208 31 18272081699962191352

> <PUBCHEM_SHAPE_MULTIPOLES>
505.72
10.69
6.03
1.22
11.48
8.87
0.17
-12.53
-1.14
-9.31
-0.22
-0.23
0.06
-1.49

> <PUBCHEM_SHAPE_SELFOVERLAP>
1030.937

> <PUBCHEM_SHAPE_VOLUME>
293.9

> <PUBCHEM_COORDINATE_TYPE>
2
5
10

$$$$
11258152
  SciTegic09112316443D

 55 56  0  0  1  0            999 V2000
   -5.7954    1.8076    0.2525 O   0  0
   -4.1082    0.7306   -1.7355 O   0  0
   -0.9865    0.1719    1.6216 O   0  0
   -3.8030   -2.1981   -1.4374 O   0  0
    0.7248   -3.5396   -0.8797 O   0  0
    1.4552   -2.0659    2.0903 O   0  0
    7.3508    2.9682   -1.1964 O   0  0
   -4.4630    2.3121    0.0726 C   0  0
   -3.5916    1.1492   -0.4656 C   0  0  1  0  0  0
   -3.5441   -0.0870    0.4463 C   0  0
   -4.5552    3.4776   -0.9172 C   0  0
   -4.0043    2.8218    1.4413 C   0  0
   -2.3960   -1.0075    0.0964 C   0  0
   -1.1658   -0.8271    0.7092 C   0  0
   -2.5955   -2.0171   -0.8325 C   0  0
   -0.1085   -1.6774    0.3851 C   0  0
   -6.6526    2.8110    0.7651 C   0  0
   -1.5382   -2.8673   -1.1567 C   0  0
   -0.2948   -2.6976   -0.5479 C   0  0
    1.1927   -1.5009    1.0205 C   0  0
    2.1924   -0.5946    0.3637 C   0  0
    0.8602   -4.7286   -0.1047 C   0  0
    3.3906   -0.3818    0.9274 C   0  0
    4.4316    0.4994    0.3694 C   0  0
    4.0755    1.4720   -0.5507 C   0  0
    5.7462    0.3375    0.7755 C   0  0
    5.0613    2.3056   -1.0792 C   0  0
    6.7318    1.1711    0.2470 C   0  0
    6.3895    2.1551   -0.6804 C   0  0
   -2.5767    1.5254   -0.6439 H   0  0
   -4.4897   -0.6420    0.3930 H   0  0
   -3.4463    0.2008    1.4984 H   0  0
   -4.9412    4.4010   -0.4723 H   0  0
   -5.1956    3.2320   -1.7721 H   0  0
   -3.5594    3.7268   -1.3021 H   0  0
   -2.9135    2.9314    1.4570 H   0  0
   -4.4040    3.8115    1.6899 H   0  0
   -4.2873    2.1444    2.2545 H   0  0
   -5.0323    0.4584   -1.6022 H   0  0
   -6.7933    3.6613    0.0944 H   0  0
   -6.4028    3.1315    1.7791 H   0  0
   -7.6431    2.3487    0.8499 H   0  0
   -1.6764   -3.6638   -1.8839 H   0  0
   -0.0909    0.1461    1.9939 H   0  0
   -3.7416   -2.9497   -2.0514 H   0  0
    1.8835   -0.1494   -0.5750 H   0  0
    0.0039   -5.3891   -0.2736 H   0  0
    0.9494   -4.5003    0.9614 H   0  0
    1.7680   -5.2456   -0.4276 H   0  0
    3.6518   -0.8760    1.8601 H   0  0
    3.0528    1.6392   -0.8732 H   0  0
    6.0290   -0.4255    1.4959 H   0  0
    4.7813    3.0716   -1.7976 H   0  0
    7.7648    1.0489    0.5612 H   0  0
    6.9371    3.5884   -1.8211 H   0  0
  1  8  1  0
  1 17  1  0
  2  9  1  0
  2 39  1  0
  3 14  1  0
  3 44  1  0
  4 15  1  0
  4 45  1  0
  5 19  1  0
  5 22  1  0
  6 20  2  0
  7 29  1  0
  7 55  1  0
  8  9  1  0
  8 11  1  0
  8 12  1  0
  9 10  1  0
  9 30  1  0
 10 13  1  0
 10 31  1  0
 10 32  1  0
 11 33  1  0
 11 34  1  0
 11 35  1  0
 12 36  1  0
 12 37  1  0
 12 38  1  0
 13 14  2  0
 13 15  1  0
 14 16  1  0
 15 18  2  0
 16 19  2  0
 16 20  1  0
 17 40  1  0
 17 41  1  0
 17 42  1  0
 18 19  1  0
 18 43  1  0
 20 21  1  0
 21 23  2  0
 21 46  1  0
 22 47  1  0
 22 48  1  0
 22 49  1  0
 23 24  1  0
 23 50  1  0
 24 25  2  0
 24 26  1  0
 25 27  1  0
 25 51  1  0
 26 28  2  0
 26 52  1  0
 27 29  2  0
 27 53  1  0
 28 29  1  0
 28 54  1  0
M  END
> <Name>
11258152

> <OBJECTID>
9223372496419618830

> <PUBCHEM_COMPOUND_CID>
11258152

> <PUBCHEM_CONFORMER_RMSD>
1

> <PUBCHEM_CONFORMER_DIVERSEORDER>
15
104
59
53
113
37
18
108
30
111
90
77
96
34
84
42
6
103
95
66
112
16
75
76
98
22
33
86
85
107
72
52
82
48
20
49
81
89
99
80
7
11
55
87
100
74
70
54
58
38
92
61
25
46
12
91
57
109
67
8
110
4
41
114
64
47
24
10
94
62
44
17
3
45
63
71
93
14
28
83
35
50
1
73
106
32
88
39
13
101
102
97
105
43
79
36
29
31
9
60
56
65
27
26
69
5
68
19
40
51
21
23
78
2

> <PUBCHEM_MMFF94_PARTIAL_CHARGES>
38
1 -0.56
10 0.14
13 -0.14
14 0.08
15 0.08
16 0.09
17 0.28
18 -0.15
19 0.08
2 -0.68
20 0.47
21 -0.14
22 0.28
23 -0.18
24 0.03
25 -0.15
26 -0.15
27 -0.15
28 -0.15
29 0.08
3 -0.53
39 0.4
4 -0.53
43 0.15
44 0.45
45 0.45
46 0.15
5 -0.36
50 0.15
51 0.15
52 0.15
53 0.15
54 0.15
55 0.45
6 -0.57
7 -0.53
8 0.28
9 0.28

> <PUBCHEM_EFFECTIVE_ROTOR_COUNT>
8

> <PUBCHEM_PHARMACOPHORE_FEATURES>
11
1 1 acceptor
1 2 acceptor
1 2 donor
1 3 donor
1 4 donor
1 5 acceptor
1 6 acceptor
1 7 donor
3 8 11 12 hydrophobe
6 13 14 15 16 18 19 rings
6 24 25 26 27 28 29 rings

> <PUBCHEM_HEAVY_ATOM_COUNT>
29

> <PUBCHEM_ATOM_DEF_STEREO_COUNT>
0

> <PUBCHEM_ATOM_UDEF_STEREO_COUNT>
1

> <PUBCHEM_BOND_DEF_STEREO_COUNT>
1

> <PUBCHEM_BOND_UDEF_STEREO_COUNT>
0

> <PUBCHEM_ISOTOPIC_ATOM_COUNT>
0

> <PUBCHEM_COMPONENT_COUNT>
1

> <PUBCHEM_CACTVS_TAUTO_COUNT>
57

> <PUBCHEM_CONFORMER_ID>
00ABC9280000000F

> <PUBCHEM_MMFF94_ENERGY>
115.2331

> <PUBCHEM_FEATURE_SELFOVERLAP>
55.827

> <PUBCHEM_SHAPE_FINGERPRINT>
10369192 42 18411708703006077773
105312 117 18273215322093689998
10670039 82 18341606066069215316
12107183 9 18263632997349861690
12293681 160 17775284950105159666
12422481 6 17386001724509358284
12760667 363 9367340440746008841
12788726 201 18194666271694027619
12895836 83 18342453746785173889
12895837 130 18336272357039163436
13103583 49 11386363690816509007
13540713 5 18198602381803790231
13885169 86 18260555536632682892
14251764 75 18410294687897648688
14294032 229 18272656796347291603
14713325 29 18409730707632299811
14790565 3 18408602574152344612
14840074 17 18113902645428347909
14849402 71 18050856507026205811
14950920 106 12685090393332838596
15064981 113 17988371455505418636
15064981 194 17753904010326836846
15163728 17 18412549794788653454
15198563 99 18055625381609674863
15297060 5 18272936011722682224
15357212 105 17270618863239288433
15575132 122 18411140263883953041
16126227 98 18341898493698360401
16992828 155 18187355536865000213
17780758 139 8790622385404244334
18785283 64 18050845516452847567
20775438 99 11203141695897796769
21756936 100 18187366596864040626
23559900 14 17630032763727286823
24771750 20 18059020475367801591
2838139 119 18261104128393869460
3388396 114 17187564382653152500
3411729 13 18262520269300119963
3552219 110 17897446327550071343
38570 142 18260276218008480034
4015057 19 14764062441352075082
4058900 60 18334852810065552866
437795 70 15410898405768983377
474113 269 10953748833042114769
484985 159 9295297127547900937
5219985 13 18410573981188884254
57724786 102 18263638459577473587
6034566 193 18411705378706613449
6327066 14 18409726227812553093
636775 72 17975695306245965060
7808743 9 18412258428712899147

> <PUBCHEM_SHAPE_MULTIPOLES>
555.72
16.51
5.12
1.41
14.52
2.67
-0.11
-23.81
1.98
-2.28
1.31
-0.27
0.02
-2.76

> <PUBCHEM_SHAPE_SELFOVERLAP>
1178.142

> <PUBCHEM_SHAPE_VOLUME>
311.6

> <PUBCHEM_COORDINATE_TYPE>
2
5
10

$$$$
11566620
  SciTegic09112316443D

 47 48  0  0  1  0            999 V2000
   -1.1659   -0.0969   -0.5956 O   0  0
    0.0614   -0.3838    1.3679 O   0  0
   -4.6712    0.3218    1.5031 O   0  0
   -4.7508   -0.2590   -1.3275 O   0  0
   -2.3355   -0.9657    2.7551 O   0  0
   -1.0239   -0.3411   -3.3299 O   0  0
    4.2953    0.7401   -0.5930 O   0  0
    2.2862    2.1186    1.7604 O   0  0
    2.8717   -3.8013   -0.3977 O   0  0
   -3.6508   -0.4008    0.8124 C   0  0  1  0  0  0
   -3.5788    0.1337   -0.6181 C   0  0  1  0  0  0
   -2.3179   -0.2190    1.5387 C   0  0  2  0  0  0
   -2.3441   -0.4113   -1.3401 C   0  0  1  0  0  0
   -1.1489   -0.7162    0.6885 C   0  0  1  0  0  0
   -2.1869    0.1989   -2.7293 C   0  0
    1.2283   -0.7460    0.7527 C   0  0
    2.1723    0.2129    0.3947 C   0  0
    1.4590   -2.0936    0.4883 C   0  0
    1.9275    1.6234    0.6734 C   0  0
    1.2114    2.5249   -0.3568 C   0  0
    3.3553   -0.1786   -0.2321 C   0  0
    2.6421   -2.4850   -0.1384 C   0  0
    3.5902   -1.5276   -0.4986 C   0  0
   -0.0592    3.1038    0.2579 C   0  0
    2.1332    3.6475   -0.8357 C   0  0
   -3.9558   -1.4544    0.8237 H   0  0
   -3.5597    1.2303   -0.5968 H   0  0
   -2.1790    0.8315    1.8180 H   0  0
   -2.4032   -1.5024   -1.4541 H   0  0
   -1.2167   -1.8062    0.5769 H   0  0
   -2.0614    1.2856   -2.6771 H   0  0
   -3.0432   -0.0274   -3.3709 H   0  0
   -5.5003    0.1976    1.0100 H   0  0
   -4.7721   -1.2307   -1.3579 H   0  0
   -2.4620   -1.9036    2.5316 H   0  0
   -0.2710   -0.1374   -2.7488 H   0  0
    0.7393   -2.8532    0.7810 H   0  0
    0.9335    1.9064   -1.2187 H   0  0
    4.5142   -1.8264   -0.9874 H   0  0
    0.1707    3.7745    1.0932 H   0  0
   -0.7073    2.3142    0.6450 H   0  0
   -0.6266    3.6719   -0.4865 H   0  0
    1.6192    4.2932   -1.5553 H   0  0
    2.4746    4.2687   -0.0005 H   0  0
    3.0213    3.2386   -1.3273 H   0  0
    4.0915    1.6035   -0.1999 H   0  0
    3.7365   -3.8905   -0.8339 H   0  0
  1 13  1  0
  1 14  1  0
  2 14  1  0
  2 16  1  0
  3 10  1  0
  3 33  1  0
  4 11  1  0
  4 34  1  0
  5 12  1  0
  5 35  1  0
  6 15  1  0
  6 36  1  0
  7 21  1  0
  7 46  1  0
  8 19  2  0
  9 22  1  0
  9 47  1  0
 10 11  1  0
 10 12  1  0
 10 26  1  0
 11 13  1  0
 11 27  1  0
 12 14  1  0
 12 28  1  0
 13 15  1  0
 13 29  1  0
 14 30  1  0
 15 31  1  0
 15 32  1  0
 16 17  1  0
 16 18  2  0
 17 19  1  0
 17 21  2  0
 18 22  1  0
 18 37  1  0
 19 20  1  0
 20 24  1  0
 20 25  1  0
 20 38  1  0
 21 23  1  0
 22 23  2  0
 23 39  1  0
 24 40  1  0
 24 41  1  0
 24 42  1  0
 25 43  1  0
 25 44  1  0
 25 45  1  0
M  END
> <Name>
11566620

> <OBJECTID>
9223372500714586126

> <PUBCHEM_COMPOUND_CID>
11566620

> <PUBCHEM_CONFORMER_RMSD>
0.8

> <PUBCHEM_CONFORMER_DIVERSEORDER>
1
229
200
16
175
50
93
165
74
193
82
90
188
189
205
139
80
8
140
195
170
135
107
122
235
199
173
104
203
147
121
98
192
61
180
172
132
130
237
204
24
167
194
23
211
228
174
79
117
68
231
81
86
210
21
227
129
207
236
103
87
54
37
158
118
56
159
232
145
240
22
34
92
138
186
137
58
171
136
181
36
28
144
60
97
105
48
219
116
182
44
40
76
39
179
153
154
102
148
156
217
71
128
160
151
112
73
45
123
126
168
43
197
214
25
149
212
213
157
234
12
120
46
42
85
152
198
29
67
10
225
75
209
41
78
124
239
233
18
94
2
201
6
101
161
96
169
65
119
32
155
5
166
190
216
146
178
133
202
89
220
27
184
14
55
163
17
38
3
164
127
206
230
91
95
224
70
99
47
110
100
53
131
9
84
150
4
63
142
19
238
226
7
52
83
49
191
66
26
196
62
64
77
109
208
177
183
20
33
11
134
187
72
222
223
218
88
13
115
185
15
106
69
31
221
176
114
113
51
125
215
59
162
108
143
57
111
30
141
35

> <PUBCHEM_MMFF94_PARTIAL_CHARGES>
31
1 -0.56
10 0.28
11 0.28
12 0.28
13 0.28
14 0.56
15 0.28
16 0.08
17 0.09
18 -0.15
19 0.42
2 -0.36
20 0.06
21 0.08
22 0.08
23 -0.15
3 -0.68
33 0.4
34 0.4
35 0.4
36 0.4
37 0.15
39 0.15
4 -0.68
46 0.45
47 0.45
5 -0.68
6 -0.68
7 -0.53
8 -0.57
9 -0.53

> <PUBCHEM_EFFECTIVE_ROTOR_COUNT>
6.2

> <PUBCHEM_PHARMACOPHORE_FEATURES>
16
1 1 acceptor
1 2 acceptor
1 3 acceptor
1 3 donor
1 4 acceptor
1 4 donor
1 5 acceptor
1 5 donor
1 6 acceptor
1 6 donor
1 7 donor
1 8 acceptor
1 9 donor
3 20 24 25 hydrophobe
6 1 10 11 12 13 14 rings
6 16 17 18 21 22 23 rings

> <PUBCHEM_HEAVY_ATOM_COUNT>
25

> <PUBCHEM_ATOM_DEF_STEREO_COUNT>
5

> <PUBCHEM_ATOM_UDEF_STEREO_COUNT>
0

> <PUBCHEM_BOND_DEF_STEREO_COUNT>
0

> <PUBCHEM_BOND_UDEF_STEREO_COUNT>
0

> <PUBCHEM_ISOTOPIC_ATOM_COUNT>
0

> <PUBCHEM_COMPONENT_COUNT>
1

> <PUBCHEM_CACTVS_TAUTO_COUNT>
21

> <PUBCHEM_CONFORMER_ID>
00B07E1C00000001

> <PUBCHEM_MMFF94_ENERGY>
79.6653

> <PUBCHEM_FEATURE_SELFOVERLAP>
81.263

> <PUBCHEM_SHAPE_FINGERPRINT>
10165383 225 17398425359520843360
10366900 7 17821720654851165359
104564 63 18196943171237892672
10498660 4 15936408901711609783
11640471 11 17559671930984253345
12156800 1 17331443820026702797
12236239 1 17489308559921479098
12553582 1 18342173320012715182
12670545 47 17676762180148543889
13134695 92 18410579465967648712
13140716 1 18195527215241355802
13911987 19 18262815059398141502
15210252 30 17604149212343070132
17357779 13 18335981978368193272
1813 80 17987247624802576126
18219364 16 18189898801753788480
19930381 70 18337109093987761163
20645476 183 17917712435288236335
20905425 154 12502974468267149262
21033648 29 17821729434302739577
21304303 282 16672150191419311892
21486144 27 18260543463637193915
23419403 2 16231733451492797816
23526113 38 18040710329736139530
23557571 272 16878238509916832558
23598291 2 17917717898037795413
238 59 17901632137544615116
25222932 49 14828746821629217101
3060560 45 18341888632490021038
350125 39 17834128811211635162
3524813 1 17748827444576062797
3797600 57 12180429944941082433
474 4 18268985573675762400
621550 5 17678482791044327667
6287921 2 17898586524716655447
6438718 38 17696467390928272440
81228 2 17975686200197093696
9862522 239 17322661338051494692
9981440 41 16121309653449803736

> <PUBCHEM_SHAPE_MULTIPOLES>
461.66
7.38
3.32
2.19
4.39
1.41
0.96
-1.63
0.43
-4.61
0.16
2.41
-0.1
0.64

> <PUBCHEM_SHAPE_SELFOVERLAP>
967.223

> <PUBCHEM_SHAPE_VOLUME>
259.3

> <PUBCHEM_COORDINATE_TYPE>
2
5
10

$$$$
11723200
  SciTegic09112316443D

 36 37  0  0  0  0            999 V2000
    6.9196   -1.1324    0.0124 O   0  0
   -6.7899   -1.4001   -0.6457 O   0  0
   -7.1817    1.2634    0.0461 O   0  0
    0.5339   -2.1332    0.1639 O   0  0
    4.2693    2.9388   -0.7934 O   0  0
    2.3495    2.6285    0.3832 O   0  0
    1.4896    0.0074    0.0312 N   0  0
    2.8797   -0.2654    0.0248 C   0  0
    3.7957    0.7714   -0.0451 C   0  0
    3.2901   -1.5873    0.0905 C   0  0
   -3.3640   -0.3674    0.1021 C   0  0
    5.1595    0.4788   -0.0495 C   0  0
    5.5887   -0.8467    0.0162 C   0  0
    4.6540   -1.8797    0.0863 C   0  0
   -2.0249   -0.9345    0.1230 C   0  0
   -4.4515   -1.1600   -0.2651 C   0  0
    0.4510   -0.9124    0.0973 C   0  0
   -3.5609    0.9693    0.4489 C   0  0
   -0.8757   -0.2231    0.0800 C   0  0
   -5.7357   -0.6160   -0.2854 C   0  0
   -5.9324    0.7205    0.0616 C   0  0
   -4.8449    1.5133    0.4286 C   0  0
    3.3808    2.1670   -0.1117 C   0  0
    2.6392   -2.4460    0.1467 H   0  0
    1.2400    0.9915   -0.0215 H   0  0
    5.9092    1.2654   -0.0894 H   0  0
    4.9772   -2.9162    0.1378 H   0  0
   -1.9794   -2.0205    0.1667 H   0  0
   -4.3108   -2.2034   -0.5393 H   0  0
   -2.7485    1.6188    0.7612 H   0  0
   -0.8697    0.8588    0.0088 H   0  0
   -4.9853    2.5548    0.7055 H   0  0
    7.0350   -2.0968    0.0632 H   0  0
   -7.5996   -0.8621   -0.6040 H   0  0
   -7.1250    2.1967    0.3140 H   0  0
    3.9836    3.8764   -0.8331 H   0  0
  1 13  1  0
  1 33  1  0
  2 20  1  0
  2 34  1  0
  3 21  1  0
  3 35  1  0
  4 17  2  0
  5 23  1  0
  5 36  1  0
  6 23  2  0
  7  8  1  0
  7 17  1  0
  7 25  1  0
  8  9  2  0
  8 10  1  0
  9 12  1  0
  9 23  1  0
 10 14  2  0
 10 24  1  0
 11 15  1  0
 11 16  2  0
 11 18  1  0
 12 13  2  0
 12 26  1  0
 13 14  1  0
 14 27  1  0
 15 19  2  0
 15 28  1  0
 16 20  1  0
 16 29  1  0
 17 19  1  0
 18 22  2  0
 18 30  1  0
 19 31  1  0
 20 21  2  0
 21 22  1  0
 22 32  1  0
M  END
> <Name>
11723200

> <OBJECTID>
9223372505009553422

> <PUBCHEM_COMPOUND_CID>
11723200

> <PUBCHEM_CONFORMER_RMSD>
0.8

> <PUBCHEM_CONFORMER_DIVERSEORDER>
1
9
8
2
4
7
6
10
13
5
11
3
12

> <PUBCHEM_MMFF94_PARTIAL_CHARGES>
36
1 -0.53
10 -0.15
11 0.03
12 -0.15
13 0.08
14 -0.15
15 -0.18
16 -0.15
17 0.62
18 -0.15
19 -0.14
2 -0.53
20 0.08
21 0.08
22 -0.15
23 0.63
24 0.15
25 0.37
26 0.15
27 0.15
28 0.15
29 0.15
3 -0.53
30 0.15
31 0.15
32 0.15
33 0.45
34 0.45
35 0.45
36 0.5
4 -0.57
5 -0.65
6 -0.57
7 -0.55
8 0.12
9 0.09

> <PUBCHEM_EFFECTIVE_ROTOR_COUNT>
5

> <PUBCHEM_PHARMACOPHORE_FEATURES>
10
1 1 donor
1 2 donor
1 3 donor
1 4 acceptor
1 5 acceptor
1 6 acceptor
1 7 donor
3 5 6 23 anion
6 11 16 18 20 21 22 rings
6 8 9 10 12 13 14 rings

> <PUBCHEM_HEAVY_ATOM_COUNT>
23

> <PUBCHEM_ATOM_DEF_STEREO_COUNT>
0

> <PUBCHEM_ATOM_UDEF_STEREO_COUNT>
0

> <PUBCHEM_BOND_DEF_STEREO_COUNT>
1

> <PUBCHEM_BOND_UDEF_STEREO_COUNT>
0

> <PUBCHEM_ISOTOPIC_ATOM_COUNT>
0

> <PUBCHEM_COMPONENT_COUNT>
1

> <PUBCHEM_CACTVS_TAUTO_COUNT>
66

> <PUBCHEM_CONFORMER_ID>
00B2E1C000000001

> <PUBCHEM_MMFF94_ENERGY>
72.5015

> <PUBCHEM_FEATURE_SELFOVERLAP>
50.809

> <PUBCHEM_SHAPE_FINGERPRINT>
10411042 1 17976820888224767210
10595046 47 18341331175757423799
10763959 59 17749103387682792045
11045977 3 18041003968023452363
11089746 13 18333450932528479179
11315181 36 17918275346924185499
12107183 9 17619632384745257779
12166972 35 18411139151398363321
12236239 1 18201999928050428967
12403259 415 17749380464728685101
12616971 3 18130781287238545063
13167372 99 18413109433396109849
13785724 45 17908143175239193394
14170010 4 18410571808552630480
14251764 18 18334574646882419946
14464042 87 17989211412762681912
14528608 73 18411419535758699159
14933364 13 18408044013750042587
15183329 4 18411421691478957880
15196674 1 18411138056497836969
15537594 2 11169918302802046704
15849732 13 17846778495289870206
17834072 33 18342174483996162799
17844677 252 18411144636434869433
18335252 114 18339916035552141037
18681886 176 18201431485060852250
20028762 73 18272652312132396542
20157964 124 18410857685248405186
20612939 158 18408889559492851352
21033648 29 16877929551744660055
21315763 129 18411700972001693301
21315763 28 18411417319803832023
21315764 268 18335415790088844733
21623969 137 10303808821785503253
21709351 56 18412256221031150503
221357 26 18408038494532749868
23536379 177 18341612594646618515
23559900 14 18342733018443739771
29717793 49 18059860554032875406
3004659 81 18411698777363037128
335352 9 18409451393398406190
34797466 226 17346325950495020629
350125 39 18408041793131066708
351380 180 18410856563971738713
4073 2 18041003989493352066
4214541 1 18411982459952937571
4325135 7 18272649048305105855
5104073 3 18187365471150001691
54446538 1 18412262839544124181
59755656 520 17894346687948525259
67856867 119 18343017826140901065
7495541 125 17417807396102822243

> <PUBCHEM_SHAPE_MULTIPOLES>
433.13
19.02
2.37
0.66
13.73
1.3
0.01
0.06
1.27
-2.33
0.14
0.1
0.06
-0.96

> <PUBCHEM_SHAPE_SELFOVERLAP>
937.542

> <PUBCHEM_SHAPE_VOLUME>
235.1

> <PUBCHEM_COORDINATE_TYPE>
2
5
10

$$$$
11902953
  SciTegic09112316443D

 24 25  0  0  1  0            999 V2000
    1.3013   -2.3053    0.5055 O   0  0
   -0.4066    2.7420    0.4052 O   0  0
   -0.3741   -0.7615    0.0907 N   0  0
    1.3234    1.2268    0.5523 N   0  0
   -0.7499    0.5238   -0.4778 C   0  0  1  0  0  0
   -2.2588    0.5841   -0.2690 C   0  0
   -1.5262   -1.6264    0.2798 C   0  0
   -2.6719   -0.8809   -0.3909 C   0  0
    1.9369   -0.0189    0.1042 C   0  0  1  0  0  0
    0.9369   -1.1516    0.2863 C   0  0
    0.0289    1.6059    0.2349 C   0  0
    2.4601    0.0618   -1.3212 C   0  0
   -0.4987    0.5236   -1.5435 H   0  0
   -2.7569    1.2232   -1.0041 H   0  0
   -2.5087    0.9609    0.7305 H   0  0
   -1.6884   -1.7307    1.3578 H   0  0
   -1.3456   -2.6163   -0.1490 H   0  0
   -3.6402   -1.0923    0.0708 H   0  0
   -2.7294   -1.1598   -1.4501 H   0  0
    2.7721   -0.2033    0.7898 H   0  0
    1.9214    1.9163    0.9974 H   0  0
    2.9449   -0.8777   -1.6075 H   0  0
    1.6662    0.2527   -2.0488 H   0  0
    3.1945    0.8686   -1.4173 H   0  0
  1 10  2  0
  2 11  2  0
  3  5  1  0
  3  7  1  0
  3 10  1  0
  4  9  1  0
  4 11  1  0
  4 21  1  0
  5  6  1  0
  5 11  1  0
  5 13  1  0
  6  8  1  0
  6 14  1  0
  6 15  1  0
  7  8  1  0
  7 16  1  0
  7 17  1  0
  8 18  1  0
  8 19  1  0
  9 10  1  0
  9 12  1  0
  9 20  1  0
 12 22  1  0
 12 23  1  0
 12 24  1  0
M  END
> <Name>
11902953

> <OBJECTID>
9223372509304520718

> <PUBCHEM_COMPOUND_CID>
11902953

> <PUBCHEM_CONFORMER_RMSD>
0.4

> <PUBCHEM_CONFORMER_DIVERSEORDER>
1

> <PUBCHEM_MMFF94_PARTIAL_CHARGES>
10
1 -0.57
10 0.57
11 0.57
2 -0.57
21 0.37
3 -0.66
4 -0.73
5 0.36
7 0.3
9 0.36

> <PUBCHEM_EFFECTIVE_ROTOR_COUNT>
1

> <PUBCHEM_PHARMACOPHORE_FEATURES>
5
1 1 acceptor
1 2 acceptor
1 4 donor
5 3 5 6 7 8 rings
6 3 4 5 9 10 11 rings

> <PUBCHEM_HEAVY_ATOM_COUNT>
12

> <PUBCHEM_ATOM_DEF_STEREO_COUNT>
2

> <PUBCHEM_ATOM_UDEF_STEREO_COUNT>
0

> <PUBCHEM_BOND_DEF_STEREO_COUNT>
0

> <PUBCHEM_BOND_UDEF_STEREO_COUNT>
0

> <PUBCHEM_ISOTOPIC_ATOM_COUNT>
0

> <PUBCHEM_COMPONENT_COUNT>
1

> <PUBCHEM_CACTVS_TAUTO_COUNT>
2

> <PUBCHEM_CONFORMER_ID>
00B59FE900000001

> <PUBCHEM_MMFF94_ENERGY>
37.9414

> <PUBCHEM_FEATURE_SELFOVERLAP>
25.467

> <PUBCHEM_SHAPE_FINGERPRINT>
10353120 184 18268732604322927876
12423570 1 17271422622685013095
12897270 3 18335703861886869358
14761567 1 18335979783454990071
16945 1 18408602560940102773
18185500 45 18410006602844677307
193761 8 18122902027942031104
20645477 70 17840297050317269295
20711985 344 17986407584859810868
21040471 1 18334569144449026111
23419403 2 15811906715709324128
23552423 10 18115307743926070563
23559900 14 18413113866783145164
241688 4 17903629683747213208
2748010 2 17614559667623102735
353137 74 18336278846591913636
4369600 1 18338802320219311236
5084963 1 17842000184547142939
66348 1 18411696578097012715

> <PUBCHEM_SHAPE_MULTIPOLES>
225.25
3.2
2.29
0.85
0.58
0.54
0.19
-0.67
0.83
-0.04
-0.6
-0.34
0
0.01

> <PUBCHEM_SHAPE_SELFOVERLAP>
471.313

> <PUBCHEM_SHAPE_VOLUME>
128

> <PUBCHEM_COORDINATE_TYPE>
2
5
10

$$$$
11937742
  SciTegic09112316443D

 28 29  0  0  1  0            999 V2000
    0.6833   -2.3181    0.0029 O   0  0
   -0.8796    2.7249    0.4653 O   0  0
    2.8292   -0.6110    1.1619 O   0  0
   -1.0056   -0.7345   -0.0600 N   0  0
    0.8050    1.1752    0.1584 N   0  0
   -1.4406    0.5825   -0.5041 C   0  0  1  0  0  0
   -2.8915    0.6618   -0.0451 C   0  0
   -2.1239   -1.5727    0.3338 C   0  0
   -3.3505   -0.7930   -0.1189 C   0  0
    1.2489   -0.0228   -0.5490 C   0  0  2  0  0  0
    0.3118   -1.1559   -0.1386 C   0  0
   -0.5166    1.6011    0.1293 C   0  0
    2.7009   -0.3418   -0.2312 C   0  0  1  0  0  0
    3.6292    0.8044   -0.6045 C   0  0
   -1.3533    0.6295   -1.5957 H   0  0
   -3.4925    1.3236   -0.6758 H   0  0
   -2.9649    1.0232    0.9882 H   0  0
   -2.0916   -1.6771    1.4235 H   0  0
   -2.0486   -2.5647   -0.1206 H   0  0
   -4.2304   -0.9957    0.4977 H   0  0
   -3.5935   -1.0492   -1.1573 H   0  0
    1.1199    0.1549   -1.6238 H   0  0
    1.4892    1.8326    0.5177 H   0  0
    3.0122   -1.2457   -0.7667 H   0  0
    3.5018    1.6801    0.0392 H   0  0
    4.6710    0.4904   -0.4708 H   0  0
    3.4973    1.1037   -1.6487 H   0  0
    2.5411    0.1803    1.6481 H   0  0
  1 11  2  0
  2 12  2  0
  3 13  1  0
  3 28  1  0
  4  6  1  0
  4  8  1  0
  4 11  1  0
  5 10  1  0
  5 12  1  0
  5 23  1  0
  6  7  1  0
  6 12  1  0
  6 15  1  0
  7  9  1  0
  7 16  1  0
  7 17  1  0
  8  9  1  0
  8 18  1  0
  8 19  1  0
  9 20  1  0
  9 21  1  0
 10 11  1  0
 10 13  1  0
 10 22  1  0
 13 14  1  0
 13 24  1  0
 14 25  1  0
 14 26  1  0
 14 27  1  0
M  END
> <Name>
11937742

> <OBJECTID>
9223372513599488014

> <PUBCHEM_COMPOUND_CID>
11937742

> <PUBCHEM_CONFORMER_RMSD>
0.6

> <PUBCHEM_CONFORMER_DIVERSEORDER>
1
2
3

> <PUBCHEM_MMFF94_PARTIAL_CHARGES>
13
1 -0.57
10 0.36
11 0.57
12 0.57
13 0.28
2 -0.57
23 0.37
28 0.4
3 -0.68
4 -0.66
5 -0.73
6 0.36
8 0.3

> <PUBCHEM_EFFECTIVE_ROTOR_COUNT>
2

> <PUBCHEM_PHARMACOPHORE_FEATURES>
7
1 1 acceptor
1 2 acceptor
1 3 acceptor
1 3 donor
1 5 donor
5 4 6 7 8 9 rings
6 4 5 6 10 11 12 rings

> <PUBCHEM_HEAVY_ATOM_COUNT>
14

> <PUBCHEM_ATOM_DEF_STEREO_COUNT>
3

> <PUBCHEM_ATOM_UDEF_STEREO_COUNT>
0

> <PUBCHEM_BOND_DEF_STEREO_COUNT>
0

> <PUBCHEM_BOND_UDEF_STEREO_COUNT>
0

> <PUBCHEM_ISOTOPIC_ATOM_COUNT>
0

> <PUBCHEM_COMPONENT_COUNT>
1

> <PUBCHEM_CACTVS_TAUTO_COUNT>
2

> <PUBCHEM_CONFORMER_ID>
00B627CE00000001

> <PUBCHEM_MMFF94_ENERGY>
41.2982

> <PUBCHEM_FEATURE_SELFOVERLAP>
35.622

> <PUBCHEM_SHAPE_FINGERPRINT>
108231 29 18268435804997733673
10967382 1 18411139181409841031
11132069 177 18412259536540161362
12032990 46 18340496650294567951
12382932 28 18412549777872209875
13380535 21 17983872080970728205
14325111 11 18408042913874509062
14614273 12 18188768336375974525
15775835 57 18113340820950724668
16945 1 18339362963685649733
17846911 113 18411693283719946640
193761 8 17979077076523552103
20201158 50 18408884036175438767
20510252 161 18343305859754303368
20588541 1 18408045117467220295
20645476 183 17749966577536016878
21061003 4 18270972344227155129
21501502 16 18124597483314472042
22802520 49 17914636976573885574
2334 1 18195526132471980557
23402539 116 18342452673354365542
23402655 69 18268414764897553957
23419403 2 15686949697445641263
23463225 33 18261388919185481314
23552423 10 18119251657796153382
23559900 14 18342178869606080676
2748010 2 18267859678190370517
3312278 4 18335707151910841707
353137 74 18336547114317393981
528886 8 18412543227825576227
537710 114 18335989760706392077
53812653 166 18341894086887263057
53812653 8 18409735040958408532
81228 2 18269004098028082513

> <PUBCHEM_SHAPE_MULTIPOLES>
260.54
5.04
2.11
0.76
1.5
0.49
0.05
-0.34
-0.23
-0.55
0.31
0.27
0
-0.19

> <PUBCHEM_SHAPE_SELFOVERLAP>
543.682

> <PUBCHEM_SHAPE_VOLUME>
147.9

> <PUBCHEM_COORDINATE_TYPE>
2
5
10

$$$$
12072107
  SciTegic09112316443D

 31 32  0  0  1  0            999 V2000
    2.0664    2.7133    0.2688 O   0  0
    2.5673   -2.5560    0.3752 O   0  0
   -5.2311   -1.0328   -0.7030 O   0  0
    1.2575   -0.6767    0.6007 N   0  0
    3.2746    0.8188   -0.2303 N   0  0
    0.8712    0.6128    0.0470 C   0  0  1  0  0  0
   -0.2880    1.2203    0.8204 C   0  0
    3.2542   -0.5315   -0.7734 C   0  0  2  0  0  0
    2.1089    1.4988    0.0878 C   0  0
    2.3735   -1.3641    0.1483 C   0  0
   -1.6082    0.6182    0.4132 C   0  0
    4.6587   -1.1021   -0.8856 C   0  0
   -2.3298    1.1939   -0.6219 C   0  0
   -2.0811   -0.5018    1.0809 C   0  0
   -3.5521    0.6369   -0.9979 C   0  0
   -3.3033   -1.0588    0.7047 C   0  0
   -4.0388   -0.4894   -0.3346 C   0  0
    0.6146    0.4621   -1.0097 H   0  0
   -0.3477    2.3039    0.6531 H   0  0
   -0.1428    1.1070    1.9034 H   0  0
    2.7822   -0.4922   -1.7620 H   0  0
    0.5967   -1.1908    1.1740 H   0  0
    4.1337    1.3576   -0.2894 H   0  0
    5.1416   -1.1653    0.0963 H   0  0
    4.6407   -2.1098   -1.3139 H   0  0
    5.2859   -0.4716   -1.5249 H   0  0
   -1.9583    2.0697   -1.1465 H   0  0
   -1.5245   -0.9493    1.8990 H   0  0
   -4.1151    1.0896   -1.8098 H   0  0
   -3.6784   -1.9349    1.2265 H   0  0
   -5.6015   -0.5124   -1.4365 H   0  0
  1  9  2  0
  2 10  2  0
  3 17  1  0
  3 31  1  0
  4  6  1  0
  4 10  1  0
  4 22  1  0
  5  8  1  0
  5  9  1  0
  5 23  1  0
  6  7  1  0
  6  9  1  0
  6 18  1  0
  7 11  1  0
  7 19  1  0
  7 20  1  0
  8 10  1  0
  8 12  1  0
  8 21  1  0
 11 13  2  0
 11 14  1  0
 12 24  1  0
 12 25  1  0
 12 26  1  0
 13 15  1  0
 13 27  1  0
 14 16  2  0
 14 28  1  0
 15 17  2  0
 15 29  1  0
 16 17  1  0
 16 30  1  0
M  END
> <Name>
12072107

> <OBJECTID>
9223372517894455310

> <PUBCHEM_COMPOUND_CID>
12072107

> <PUBCHEM_CONFORMER_RMSD>
0.6

> <PUBCHEM_CONFORMER_DIVERSEORDER>
2
11
12
7
8
10
4
5
13
3
9
6
14
1

> <PUBCHEM_MMFF94_PARTIAL_CHARGES>
23
1 -0.57
10 0.57
11 -0.14
13 -0.15
14 -0.15
15 -0.15
16 -0.15
17 0.08
2 -0.57
22 0.37
23 0.37
27 0.15
28 0.15
29 0.15
3 -0.53
30 0.15
31 0.45
4 -0.73
5 -0.73
6 0.36
7 0.14
8 0.36
9 0.57

> <PUBCHEM_EFFECTIVE_ROTOR_COUNT>
2.8

> <PUBCHEM_PHARMACOPHORE_FEATURES>
7
1 1 acceptor
1 2 acceptor
1 3 donor
1 4 donor
1 5 donor
6 11 13 14 15 16 17 rings
6 4 5 6 8 9 10 rings

> <PUBCHEM_HEAVY_ATOM_COUNT>
17

> <PUBCHEM_ATOM_DEF_STEREO_COUNT>
2

> <PUBCHEM_ATOM_UDEF_STEREO_COUNT>
0

> <PUBCHEM_BOND_DEF_STEREO_COUNT>
0

> <PUBCHEM_BOND_UDEF_STEREO_COUNT>
0

> <PUBCHEM_ISOTOPIC_ATOM_COUNT>
0

> <PUBCHEM_COMPONENT_COUNT>
1

> <PUBCHEM_CACTVS_TAUTO_COUNT>
8

> <PUBCHEM_CONFORMER_ID>
00B834AB00000002

> <PUBCHEM_MMFF94_ENERGY>
53.5567

> <PUBCHEM_FEATURE_SELFOVERLAP>
35.531

> <PUBCHEM_SHAPE_FINGERPRINT>
10366900 7 18186243934914067691
10498660 4 16588291753681143213
11471102 20 18410857693838320304
11615757 297 18273501173457250747
11806522 49 18342742901569487416
12553582 1 18267314144324034106
13296908 3 18413386540459535193
13862211 1 18339082589070328118
14252887 29 17703514303275206494
14576447 43 18412263904944251902
15477762 27 18413671309823757524
17834074 16 18336828684025900339
18186145 218 18114175329054889433
18915474 69 17917425483937826239
19422 9 17846226574295558521
19433438 38 18040998414625268662
19784866 240 17775290452058284007
200 152 18202282502644087089
20279233 1 18187364358758642233
20281475 54 18339080367606339489
20361792 2 17275378811661701289
20645477 70 18343865541026349573
20671657 53 18341054025496373008
20871999 31 17822009779338716589
21256008 61 18341896277452459204
21713013 43 18334855030736971343
221357 26 18335698317585191717
221490 88 18337118976523152954
2255824 54 18342180007255592076
22646028 28 17917712392069180583
23402539 116 18128825149179786606
23402655 69 18187927205691052621
23557571 272 17676476268434206845
23559900 14 18334288807628430721
23596394 208 18261104179811878455
2748010 2 17902810874360659354
2838139 119 15720261516119132918
2871803 45 18335139799494746087
312423 11 18131084748190156617
3323516 105 18334294283906548243
33824 294 18339077206716170424
3472631 163 14923948972360631087
465052 167 17702948170893703847
4921388 177 16443362974192677595
58051976 100 18411981326292711093
7364860 26 18343018938869941560
93112 12 18335137579249822709
9709674 26 18262236741556037915

> <PUBCHEM_SHAPE_MULTIPOLES>
322.28
9.02
2.05
0.99
2.73
0.28
0.03
-3.66
2.98
-1.61
-0.23
0.37
-0.06
0.4

> <PUBCHEM_SHAPE_SELFOVERLAP>
682.006

> <PUBCHEM_SHAPE_VOLUME>
179.1

> <PUBCHEM_COORDINATE_TYPE>
2
5
10

$$$$
12310637
  SciTegic09112316443D

 39 39  0  0  0  0            999 V2000
   -0.9083    0.0849    2.2374 O   0  0
    0.9021   -0.1377   -2.1026 O   0  0
   -0.6589    2.8043    1.2882 O   0  0
    0.4939    2.6795   -1.4801 O   0  0
    0.0149   -0.6914    0.1092 C   0  0
    1.2065   -1.4723    0.6462 C   0  0
   -1.1302   -1.5976   -0.3221 C   0  0
   -0.4614    0.3288    1.1280 C   0  0
    0.4385    0.2177   -1.0310 C   0  0
   -0.3070    1.6971    0.5794 C   0  0
    0.2082    1.6335   -0.6571 C   0  0
    2.3955   -0.5797    0.8504 C   0  0
   -2.2916   -0.7996   -0.8382 C   0  0
    3.5889   -0.6407    0.2296 C   0  0
   -3.5348   -0.7266   -0.3259 C   0  0
    4.7431    0.2878    0.4813 C   0  0
    3.8510   -1.6895   -0.8182 C   0  0
   -4.6573    0.0951   -0.8937 C   0  0
   -3.8931   -1.4937    0.9190 C   0  0
    0.9547   -1.9158    1.6188 H   0  0
    1.4284   -2.3194   -0.0085 H   0  0
   -0.7969   -2.2489   -1.1414 H   0  0
   -1.4054   -2.2731    0.4922 H   0  0
    2.2764    0.1894    1.6128 H   0  0
   -2.1077   -0.2400   -1.7544 H   0  0
   -0.4699    3.5798    0.7316 H   0  0
    0.8557    2.3071   -2.3028 H   0  0
    5.6240   -0.2776    0.8016 H   0  0
    4.9931    0.8437   -0.4279 H   0  0
    4.5100    1.0164    1.2649 H   0  0
    2.9550   -2.0369   -1.3368 H   0  0
    4.3602   -2.5492   -0.3714 H   0  0
    4.5025   -1.2839   -1.6012 H   0  0
   -5.5100   -0.5448   -1.1421 H   0  0
   -4.9829    0.8503   -0.1711 H   0  0
   -4.3526    0.6164   -1.8072 H   0  0
   -3.0449   -1.7245    1.5662 H   0  0
   -4.3995   -2.4270    0.6525 H   0  0
   -4.5803   -0.9042    1.5373 H   0  0
  1  8  2  0
  2  9  2  0
  3 10  1  0
  3 26  1  0
  4 11  1  0
  4 27  1  0
  5  6  1  0
  5  7  1  0
  5  8  1  0
  5  9  1  0
  6 12  1  0
  6 20  1  0
  6 21  1  0
  7 13  1  0
  7 22  1  0
  7 23  1  0
  8 10  1  0
  9 11  1  0
 10 11  2  0
 12 14  2  0
 12 24  1  0
 13 15  2  0
 13 25  1  0
 14 16  1  0
 14 17  1  0
 15 18  1  0
 15 19  1  0
 16 28  1  0
 16 29  1  0
 16 30  1  0
 17 31  1  0
 17 32  1  0
 17 33  1  0
 18 34  1  0
 18 35  1  0
 18 36  1  0
 19 37  1  0
 19 38  1  0
 19 39  1  0
M  END
> <Name>
12310637

> <OBJECTID>
9223372522189422606

> <PUBCHEM_COMPOUND_CID>
12310637

> <PUBCHEM_CONFORMER_RMSD>
0.6

> <PUBCHEM_CONFORMER_DIVERSEORDER>
8
26
17
19
18
15
1
21
23
11
27
3
24
16
2
22
20
13
10
5
7
14
25
6
4
12
9

> <PUBCHEM_MMFF94_PARTIAL_CHARGES>
23
1 -0.57
10 0.09
11 0.09
12 -0.29
13 -0.29
14 -0.28
15 -0.28
16 0.14
17 0.14
18 0.14
19 0.14
2 -0.57
24 0.15
25 0.15
26 0.45
27 0.45
3 -0.53
4 -0.53
5 0.12
6 0.14
7 0.14
8 0.49
9 0.49

> <PUBCHEM_EFFECTIVE_ROTOR_COUNT>
4.2

> <PUBCHEM_PHARMACOPHORE_FEATURES>
7
1 1 acceptor
1 2 acceptor
1 3 donor
1 4 donor
3 14 16 17 hydrophobe
3 15 18 19 hydrophobe
5 5 8 9 10 11 rings

> <PUBCHEM_HEAVY_ATOM_COUNT>
19

> <PUBCHEM_ATOM_DEF_STEREO_COUNT>
0

> <PUBCHEM_ATOM_UDEF_STEREO_COUNT>
0

> <PUBCHEM_BOND_DEF_STEREO_COUNT>
0

> <PUBCHEM_BOND_UDEF_STEREO_COUNT>
0

> <PUBCHEM_ISOTOPIC_ATOM_COUNT>
0

> <PUBCHEM_COMPONENT_COUNT>
1

> <PUBCHEM_CACTVS_TAUTO_COUNT>
4

> <PUBCHEM_CONFORMER_ID>
00BBD86D00000008

> <PUBCHEM_MMFF94_ENERGY>
34.2716

> <PUBCHEM_FEATURE_SELFOVERLAP>
35.521

> <PUBCHEM_SHAPE_FINGERPRINT>
104564 63 18198337364956075937
10922049 32 9223232970135117916
10948715 1 8646773304442680487
12011746 2 15913326909469230294
12119455 92 12679464174826740570
12715332 25 11097859566339571976
13132413 78 18410285917669168085
13134695 92 18130213965219769829
13380536 53 17131839775962519526
13533116 47 16805866409284290746
14181834 199 18058165218629556693
14943859 89 11097858492576687806
15238133 3 18269015141121899097
16945 1 18059272327806656762
17834072 14 18410012139009919174
17980427 23 16271650078645847449
1813 80 18412272735027656686
18769570 83 17385992928231901277
18785283 64 17388551676446929877
19010151 120 18342741831589757602
200 152 17385438800557985266
20600515 1 18131081458007480191
21296965 67 18335699459550633030
21524375 3 16742546414697833964
22112679 90 17986420890911119673
23175994 123 18413672418099516587
23402539 116 17703783713340798423
23419403 2 18127381584200794229
23557571 272 18341894057249772894
23559900 14 18412541003602573330
312423 11 18262243193093094050
3250762 1 17244999481226552755
3286 77 17749957803123520263
465052 167 14908176503497431878
633830 44 12252173039967287451
7495541 125 17604158137611774931
81228 2 18264216824500504858

> <PUBCHEM_SHAPE_MULTIPOLES>
367.53
7.06
2.2
1.56
0.34
1.55
0.05
-3.19
-0.4
0.01
-0.02
-0.19
0.34
0.18

> <PUBCHEM_SHAPE_SELFOVERLAP>
756.57

> <PUBCHEM_SHAPE_VOLUME>
210.3

> <PUBCHEM_COORDINATE_TYPE>
2
5
10

$$$$
12719326
  SciTegic09112316443D

 26 26  0  0  0  0            999 V2000
   -3.0853   -0.1088    0.0962 O   0  0
    4.0964    1.7191   -0.1695 O   0  0
   -1.1274    0.3804   -1.0286 O   0  0
    0.9791   -0.9804    0.3020 C   0  0
    2.0393   -1.2814   -0.5528 C   0  0
    0.9664    0.2281    0.9986 C   0  0
   -0.1139   -1.9257    0.4674 C   0  0
    3.0869   -0.3742   -0.7110 C   0  0
    2.0139    1.1355    0.8404 C   0  0
    3.0742    0.8344   -0.0145 C   0  0
   -3.6487    1.1403   -0.3179 C   0  0
   -1.4118   -1.6748    0.1859 C   0  0
   -1.8180   -0.3501   -0.3357 C   0  0
   -5.0512    1.2576    0.2395 C   0  0
    2.0631   -2.2190   -1.1031 H   0  0
    0.1575    0.4784    1.6812 H   0  0
    0.1603   -2.9119    0.8331 H   0  0
    3.9071   -0.6206   -1.3801 H   0  0
    1.9999    2.0741    1.3878 H   0  0
   -3.0300    1.9623    0.0592 H   0  0
   -3.6804    1.1816   -1.4124 H   0  0
   -2.1746   -2.4247    0.3624 H   0  0
   -5.5127    2.2033   -0.0584 H   0  0
   -5.6770    0.4317   -0.1146 H   0  0
   -5.0374    1.1997    1.3329 H   0  0
    4.7416    1.3488   -0.7962 H   0  0
  1 11  1  0
  1 13  1  0
  2 10  1  0
  2 26  1  0
  3 13  2  0
  4  5  2  0
  4  6  1  0
  4  7  1  0
  5  8  1  0
  5 15  1  0
  6  9  2  0
  6 16  1  0
  7 12  2  0
  7 17  1  0
  8 10  2  0
  8 18  1  0
  9 10  1  0
  9 19  1  0
 11 14  1  0
 11 20  1  0
 11 21  1  0
 12 13  1  0
 12 22  1  0
 14 23  1  0
 14 24  1  0
 14 25  1  0
M  END
> <Name>
12719326

> <OBJECTID>
9223372526484389902

> <PUBCHEM_COMPOUND_CID>
12719326

> <PUBCHEM_CONFORMER_RMSD>
0.6

> <PUBCHEM_CONFORMER_DIVERSEORDER>
1
12
20
4
17
11
23
18
19
21
2
24
14
3
7
22
13
5
6
8
15
16
10
9

> <PUBCHEM_MMFF94_PARTIAL_CHARGES>
20
1 -0.43
10 0.08
11 0.28
12 -0.14
13 0.71
15 0.15
16 0.15
17 0.15
18 0.15
19 0.15
2 -0.53
22 0.15
26 0.45
3 -0.57
4 0.03
5 -0.15
6 -0.15
7 -0.18
8 -0.15
9 -0.15

> <PUBCHEM_EFFECTIVE_ROTOR_COUNT>
4

> <PUBCHEM_PHARMACOPHORE_FEATURES>
3
1 2 donor
1 3 acceptor
6 4 5 6 8 9 10 rings

> <PUBCHEM_HEAVY_ATOM_COUNT>
14

> <PUBCHEM_ATOM_DEF_STEREO_COUNT>
0

> <PUBCHEM_ATOM_UDEF_STEREO_COUNT>
0

> <PUBCHEM_BOND_DEF_STEREO_COUNT>
1

> <PUBCHEM_BOND_UDEF_STEREO_COUNT>
0

> <PUBCHEM_ISOTOPIC_ATOM_COUNT>
0

> <PUBCHEM_COMPONENT_COUNT>
1

> <PUBCHEM_CACTVS_TAUTO_COUNT>
2

> <PUBCHEM_CONFORMER_ID>
00C214DE00000001

> <PUBCHEM_MMFF94_ENERGY>
35.4605

> <PUBCHEM_FEATURE_SELFOVERLAP>
15.223

> <PUBCHEM_SHAPE_FINGERPRINT>
10498660 4 18334006169211474829
10608611 8 18340485689611628192
11031198 65 18130790074673183910
11471102 20 18272651216688408206
11543360 7 16988268868044406973
122479 349 18334016128781418723
12251169 10 12035453852103017888
12346645 44 18335417950583319219
12654215 9 18272936029287257026
13764800 53 18186809097123735027
14123255 52 18335416855287790781
14252887 29 9799395737834509103
15219456 202 18339930415070999150
15775835 57 18259700107742429402
15848700 24 10519981552259062675
177051 138 9367344833980152661
17834072 14 9655574080845661539
17834072 32 18263647432059924300
18186145 218 18411134697543046999
20645477 70 17845941740317001070
20820808 20 18412825763696281866
21501502 16 18337941389730419314
22926399 65 18339081592009823720
231179 274 18334290929463366837
23402539 116 18340758325936092284
23402655 69 18060700584989923701
23500284 214 18261394476714725059
23557571 272 18267036135507315382
23559900 14 18342740724522215238
25 1 18342457032292632810
251288 83 11746944178333247016
276578 36 17603302631090980554
4047638 21 18408888421262987006
4990 188 17989208118680624815
633830 44 18270679758449527261
6442390 28 18261403264614114419
76465 3 10159712261030295740
81228 2 17753046386851869523

> <PUBCHEM_SHAPE_MULTIPOLES>
270.51
7.67
1.85
0.89
6.71
0.3
0.03
-5.11
-0.7
-0.32
0.16
-0.21
-0.03
0.27

> <PUBCHEM_SHAPE_SELFOVERLAP>
557.587

> <PUBCHEM_SHAPE_VOLUME>
155.5

> <PUBCHEM_COORDINATE_TYPE>
2
5
10

$$$$
12986068
  SciTegic09112316443D

 49 51  0  0  1  0            999 V2000
   -1.8262   -1.0755   -0.6964 O   0  0
   -2.1049   -3.2727    1.0264 O   0  0
   -4.7249    1.6343    1.8086 O   0  0
   -0.7022    3.5542    0.0966 O   0  0
    0.1092    1.2756   -2.3256 O   0  0
    7.2516   -1.1577    1.4123 O   0  0
   -3.1065   -1.7389   -0.5251 C   0  0  1  0  0  0
   -2.8627   -3.2000   -0.1849 C   0  0
   -3.9026   -1.0050    0.5653 C   0  0
   -3.2206    0.3071    0.5120 C   0  0
   -2.0371    0.1850   -0.1994 C   0  0
   -2.0683   -3.8998   -1.2906 C   0  0
   -4.1845   -3.9298    0.0622 C   0  0
   -1.1649    1.2447   -0.3558 C   0  0
   -3.5769    1.5092    1.0955 C   0  0
   -1.5172    2.4670    0.2195 C   0  0
   -2.7161    2.5990    0.9395 C   0  0
    0.0759    1.0876   -1.1007 C   0  0
    1.3105    0.6618   -0.3583 C   0  0
   -0.9175    4.3991   -1.0308 C   0  0
    2.4687    0.4784   -1.0092 C   0  0
    3.7260    0.0488   -0.3722 C   0  0
    3.8828    0.2061    0.9952 C   0  0
    4.7270   -0.5048   -1.1539 C   0  0
    5.0732   -0.2010    1.5975 C   0  0
    5.9175   -0.9122   -0.5518 C   0  0
    6.0906   -0.7603    0.8241 C   0  0
   -3.6369   -1.6569   -1.4852 H   0  0
   -3.7797   -1.4350    1.5643 H   0  0
   -4.9659   -0.9470    0.3151 H   0  0
   -1.8999   -4.9542   -1.0424 H   0  0
   -2.5896   -3.8530   -2.2523 H   0  0
   -1.0738   -3.4554   -1.4095 H   0  0
   -4.7090   -3.5447    0.9430 H   0  0
   -4.0073   -4.9929    0.2650 H   0  0
   -4.8514   -3.8569   -0.8033 H   0  0
   -1.9517   -4.2112    1.2301 H   0  0
   -2.9675    3.5594    1.3843 H   0  0
   -4.7941    2.5474    2.1364 H   0  0
    1.1878    0.4957    0.7057 H   0  0
   -1.8990    4.8790   -0.9631 H   0  0
   -0.8412    3.8375   -1.9666 H   0  0
   -0.1486    5.1766   -1.0275 H   0  0
    2.5224    0.6354   -2.0839 H   0  0
    3.1278    0.6555    1.6325 H   0  0
    4.6065   -0.6310   -2.2266 H   0  0
    5.2046   -0.0761    2.6689 H   0  0
    6.7022   -1.3468   -1.1652 H   0  0
    7.8422   -1.5206    0.7300 H   0  0
  1  7  1  0
  1 11  1  0
  2  8  1  0
  2 37  1  0
  3 15  1  0
  3 39  1  0
  4 16  1  0
  4 20  1  0
  5 18  2  0
  6 27  1  0
  6 49  1  0
  7  8  1  0
  7  9  1  0
  7 28  1  0
  8 12  1  0
  8 13  1  0
  9 10  1  0
  9 29  1  0
  9 30  1  0
 10 11  2  0
 10 15  1  0
 11 14  1  0
 12 31  1  0
 12 32  1  0
 12 33  1  0
 13 34  1  0
 13 35  1  0
 13 36  1  0
 14 16  2  0
 14 18  1  0
 15 17  2  0
 16 17  1  0
 17 38  1  0
 18 19  1  0
 19 21  2  0
 19 40  1  0
 20 41  1  0
 20 42  1  0
 20 43  1  0
 21 22  1  0
 21 44  1  0
 22 23  2  0
 22 24  1  0
 23 25  1  0
 23 45  1  0
 24 26  2  0
 24 46  1  0
 25 27  2  0
 25 47  1  0
 26 27  1  0
 26 48  1  0
M  END
> <Name>
12986068

> <OBJECTID>
9223372530779357198

> <PUBCHEM_COMPOUND_CID>
12986068

> <PUBCHEM_CONFORMER_RMSD>
0.8

> <PUBCHEM_CONFORMER_DIVERSEORDER>
2
81
57
39
41
24
12
42
73
61
15
20
16
65
19
69
77
13
72
36
40
26
8
43
75
46
45
23
63
28
76
32
6
52
22
68
18
70
67
33
37
55
34
62
71
9
35
60
44
64
54
80
31
10
78
25
47
53
11
48
5
49
58
74
7
17
14
79
30
21
38
4
1
3
50
66
29
27
56
51
59

> <PUBCHEM_MMFF94_PARTIAL_CHARGES>
35
1 -0.36
10 -0.14
11 0.08
14 0.09
15 0.08
16 0.08
17 -0.15
18 0.47
19 -0.14
2 -0.68
20 0.28
21 -0.18
22 0.03
23 -0.15
24 -0.15
25 -0.15
26 -0.15
27 0.08
3 -0.53
37 0.4
38 0.15
39 0.45
4 -0.36
40 0.15
44 0.15
45 0.15
46 0.15
47 0.15
48 0.15
49 0.45
5 -0.57
6 -0.53
7 0.28
8 0.28
9 0.14

> <PUBCHEM_EFFECTIVE_ROTOR_COUNT>
5.6

> <PUBCHEM_PHARMACOPHORE_FEATURES>
11
1 1 acceptor
1 2 acceptor
1 2 donor
1 3 donor
1 4 acceptor
1 5 acceptor
1 6 donor
3 8 12 13 hydrophobe
5 1 7 9 10 11 rings
6 10 11 14 15 16 17 rings
6 22 23 24 25 26 27 rings

> <PUBCHEM_HEAVY_ATOM_COUNT>
27

> <PUBCHEM_ATOM_DEF_STEREO_COUNT>
0

> <PUBCHEM_ATOM_UDEF_STEREO_COUNT>
1

> <PUBCHEM_BOND_DEF_STEREO_COUNT>
1

> <PUBCHEM_BOND_UDEF_STEREO_COUNT>
0

> <PUBCHEM_ISOTOPIC_ATOM_COUNT>
0

> <PUBCHEM_COMPONENT_COUNT>
1

> <PUBCHEM_CACTVS_TAUTO_COUNT>
10

> <PUBCHEM_CONFORMER_ID>
00C626D400000002

> <PUBCHEM_MMFF94_ENERGY>
100.9545

> <PUBCHEM_FEATURE_SELFOVERLAP>
55.928

> <PUBCHEM_SHAPE_FINGERPRINT>
10319926 262 18202569449915769094
10928967 22 17822284640314049306
10930396 42 18269252630373862800
11370993 144 17489031453115957734
11720765 8 16337473588289719015
12523318 42 18343298163225409642
12616971 3 17749114379115544446
12633257 1 18343309145378183872
13004483 165 18198622340146874055
13140716 1 18342464784745954053
13583140 156 17346875654959178926
13994607 96 12031785907145923295
14068700 675 17986096621286661703
14705955 166 17489593311873666209
14844126 61 18412823620581831011
14856354 85 18411983555639051462
14866123 147 18411708712081874379
14910302 57 18270410365184418822
15042514 8 18411708690152707319
15230672 131 17833280714591673174
15250474 111 18334293159137319674
15348495 7 18131345303013677832
15537594 2 17967534537047740482
15950262 2 15193898722386807617
16728300 4 17750518382428743417
16994733 274 15050898469566895899
17780758 139 18411132537459366058
17980427 26 16971095273354966332
1813 80 17531545199690892436
19377110 9 18113339709388190508
20600515 1 18201454574863427717
21033648 29 18054234228337893912
21421861 104 17762915655162710417
21650355 55 18412265042978878901
22956985 138 17834383897724818600
23366157 5 17757842499759323725
23559900 14 18268138932606023425
312425 54 18343015554894668082
3383291 50 18342460370237316867
3882209 13 17195418129807348814
4409770 3 18188200984582754557
463206 1 18048314745270169842
484985 159 18261940878170133383
5104073 3 18271805761467487120
5364581 5 18058998614643245168
5486654 36 18188220921582974403
563151 74 15841286847667484255
56638632 10 16182720095963734305
57527585 21 13944116496739886895
5924683 9 18342735243089079686
602551 16 18412827971821018742
9896288 288 18266190430893227161
9953998 17 18342168952431629496
9981440 41 17903638475989269617

> <PUBCHEM_SHAPE_MULTIPOLES>
520.43
12.87
4.79
1.5
25.54
0.6
0.05
7.81
-5.61
-8.2
0.82
0.64
-0.26
-1.4

> <PUBCHEM_SHAPE_SELFOVERLAP>
1130.227

> <PUBCHEM_SHAPE_VOLUME>
286.1

> <PUBCHEM_COORDINATE_TYPE>
2
5
10

$$$$
13654640
  SciTegic09112316443D

 33 34  0  0  1  0            999 V2000
    0.5393   -2.2127   -0.2886 O   0  0
   -1.3206    2.6641    0.6312 O   0  0
   -1.2543   -0.7600   -0.0969 N   0  0
    0.4310    1.2656    0.0745 N   0  0
   -1.8209    0.5432   -0.4156 C   0  0  1  0  0  0
    0.8876    0.1460   -0.7446 C   0  0  1  0  0  0
   -3.2230    0.4869    0.1784 C   0  0
   -2.2684   -1.7010    0.3442 C   0  0
   -3.5842   -0.9920    0.0556 C   0  0
    2.3822   -0.0797   -0.5817 C   0  0  2  0  0  0
    0.0756   -1.0758   -0.3221 C   0  0
   -0.9139    1.5915    0.1934 C   0  0
    2.7125   -0.4234    0.8849 C   0  0
    3.1577    1.1488   -1.0704 C   0  0
    4.1994   -0.6016    1.1576 C   0  0
   -1.8422    0.6577   -1.5055 H   0  0
    0.6389    0.3696   -1.7895 H   0  0
   -3.9265    1.1358   -0.3517 H   0  0
   -3.2220    0.7832    1.2348 H   0  0
   -2.1246   -1.8636    1.4176 H   0  0
   -2.1679   -2.6574   -0.1767 H   0  0
   -4.3846   -1.2947    0.7362 H   0  0
   -3.9072   -1.2072   -0.9702 H   0  0
    2.6812   -0.9306   -1.2083 H   0  0
    1.0998    1.9555    0.4015 H   0  0
    2.2187   -1.3498    1.1928 H   0  0
    2.3471    0.3593    1.5603 H   0  0
    2.7967    1.4758   -2.0515 H   0  0
    4.2208    0.9125   -1.1868 H   0  0
    3.0833    1.9935   -0.3786 H   0  0
    4.3535   -0.9484    2.1848 H   0  0
    4.7461    0.3393    1.0450 H   0  0
    4.6362   -1.3433    0.4815 H   0  0
  1 11  2  0
  2 12  2  0
  3  5  1  0
  3  8  1  0
  3 11  1  0
  4  6  1  0
  4 12  1  0
  4 25  1  0
  5  7  1  0
  5 12  1  0
  5 16  1  0
  6 10  1  0
  6 11  1  0
  6 17  1  0
  7  9  1  0
  7 18  1  0
  7 19  1  0
  8  9  1  0
  8 20  1  0
  8 21  1  0
  9 22  1  0
  9 23  1  0
 10 13  1  0
 10 14  1  0
 10 24  1  0
 13 15  1  0
 13 26  1  0
 13 27  1  0
 14 28  1  0
 14 29  1  0
 14 30  1  0
 15 31  1  0
 15 32  1  0
 15 33  1  0
M  END
> <Name>
13654640

> <OBJECTID>
9223372535074324494

> <PUBCHEM_COMPOUND_CID>
13654640

> <PUBCHEM_CONFORMER_RMSD>
0.6

> <PUBCHEM_CONFORMER_DIVERSEORDER>
1
4
3
2
5

> <PUBCHEM_MMFF94_PARTIAL_CHARGES>
10
1 -0.57
11 0.57
12 0.57
2 -0.57
25 0.37
3 -0.66
4 -0.73
5 0.36
6 0.36
8 0.3

> <PUBCHEM_EFFECTIVE_ROTOR_COUNT>
3

> <PUBCHEM_PHARMACOPHORE_FEATURES>
7
1 1 acceptor
1 14 hydrophobe
1 15 hydrophobe
1 2 acceptor
1 4 donor
5 3 5 7 8 9 rings
6 3 4 5 6 11 12 rings

> <PUBCHEM_HEAVY_ATOM_COUNT>
15

> <PUBCHEM_ATOM_DEF_STEREO_COUNT>
3

> <PUBCHEM_ATOM_UDEF_STEREO_COUNT>
0

> <PUBCHEM_BOND_DEF_STEREO_COUNT>
0

> <PUBCHEM_BOND_UDEF_STEREO_COUNT>
0

> <PUBCHEM_ISOTOPIC_ATOM_COUNT>
0

> <PUBCHEM_COMPONENT_COUNT>
1

> <PUBCHEM_CACTVS_TAUTO_COUNT>
2

> <PUBCHEM_CONFORMER_ID>
00D05A7000000001

> <PUBCHEM_MMFF94_ENERGY>
43.7362

> <PUBCHEM_FEATURE_SELFOVERLAP>
35.619

> <PUBCHEM_SHAPE_FINGERPRINT>
10062212 137 18335976536850344515
10130415 120 18334857250823541395
11132069 177 18342458119008951523
11680986 33 17908140984235452262
11769659 78 17895187843922695706
12119455 92 16845281731543329998
12251169 10 18260261911266688722
12382932 28 18341339924537247115
13140716 1 18340769359554088673
13380535 76 18267298729823389653
13538477 17 18261956353311528670
13581323 91 18341323444858482570
14614273 12 18263078821355048133
15076042 46 18409166610637260426
15342168 16 15051155922221742440
15375462 189 18116724095359487267
15375462 478 18408595964002399894
15775835 57 18041006171447040212
16945 1 18340494382715138573
17804303 29 18197212543366132186
17846911 113 18342172250338667353
1813 80 17096649782780063250
19026448 4 15554456201446852247
193761 8 17979645532820225775
19422 9 18040435524875339970
20510252 161 18272936011748919360
20525323 117 18270394993121711613
20559304 39 18408041814790097076
20645476 183 17750812123341797902
21501502 16 18125168142823821519
22445834 79 17896029962872095562
2334 1 18052540160144294437
23402539 116 18201141214022559927
23463225 33 18333167258713103166
23559900 14 18271816705133678596
2748010 2 18197214973948090269
4072396 5 18410845543513139403
43471831 8 18336260124845846754
53655031 270 18335698317063043115
537710 114 18336834190084387605
53812653 8 18410020952625799572
53812654 25 18270112538671060990
7364860 26 17841995481553133918
77492 1 17967819349029111676
81228 2 18270416983449596129

> <PUBCHEM_SHAPE_MULTIPOLES>
286.99
6.1
2.04
0.95
2.27
0.46
0.04
-1.03
1.12
-0.81
0.22
0.77
0.06
-0.65

> <PUBCHEM_SHAPE_SELFOVERLAP>
591.498

> <PUBCHEM_SHAPE_VOLUME>
165.1

> <PUBCHEM_COORDINATE_TYPE>
2
5
10

$$$$
13783105
  SciTegic09112316443D

 36 37  0  0  1  0            999 V2000
    1.8719   -2.4104    0.2961 O   0  0
    0.8950    2.7807    0.6516 O   0  0
    2.3041    1.0564    0.0692 N   0  0
    0.3820   -0.6819    0.5976 N   0  0
    2.4454   -0.2288   -0.5994 C   0  0  1  0  0  0
    3.9009   -0.6636   -0.6571 C   0  0
   -0.0832    0.6193    0.1407 C   0  0  1  0  0  0
    1.5848   -1.2224    0.1691 C   0  0
   -1.3435    1.0442    0.8769 C   0  0
    1.0617    1.5988    0.3600 C   0  0
    4.7199    0.3348   -1.4643 C   0  0
    4.4626   -0.8204    0.7498 C   0  0
   -2.5726    0.3774    0.3164 C   0  0
   -3.2727    0.9912   -0.7123 C   0  0
   -2.9859   -0.8406    0.8368 C   0  0
   -4.4106    0.3738   -1.2316 C   0  0
   -4.1237   -1.4579    0.3174 C   0  0
   -4.8361   -0.8507   -0.7169 C   0  0
    2.0280   -0.1317   -1.6094 H   0  0
    3.9637   -1.6372   -1.1601 H   0  0
   -0.2527    0.5550   -0.9420 H   0  0
    3.1016    1.6798    0.1405 H   0  0
   -1.4910    2.1302    0.8092 H   0  0
   -1.2617    0.8350    1.9524 H   0  0
   -0.2660   -1.3058    1.0673 H   0  0
    4.8291    1.3018   -0.9639 H   0  0
    5.7313   -0.0544   -1.6280 H   0  0
    4.2732    0.5064   -2.4495 H   0  0
    4.4416    0.1176    1.3148 H   0  0
    5.5121   -1.1337    0.6971 H   0  0
    3.9434   -1.5801    1.3396 H   0  0
   -2.9484    1.9435   -1.1222 H   0  0
   -2.4474   -1.3199    1.6489 H   0  0
   -4.9650    0.8462   -2.0373 H   0  0
   -4.4565   -2.4102    0.7197 H   0  0
   -5.7223   -1.3312   -1.1209 H   0  0
  1  8  2  0
  2 10  2  0
  3  5  1  0
  3 10  1  0
  3 22  1  0
  4  7  1  0
  4  8  1  0
  4 25  1  0
  5  6  1  0
  5  8  1  0
  5 19  1  0
  6 11  1  0
  6 12  1  0
  6 20  1  0
  7  9  1  0
  7 10  1  0
  7 21  1  0
  9 13  1  0
  9 23  1  0
  9 24  1  0
 11 26  1  0
 11 27  1  0
 11 28  1  0
 12 29  1  0
 12 30  1  0
 12 31  1  0
 13 14  2  0
 13 15  1  0
 14 16  1  0
 14 32  1  0
 15 17  2  0
 15 33  1  0
 16 18  2  0
 16 34  1  0
 17 18  1  0
 17 35  1  0
 18 36  1  0
M  END
> <Name>
13783105

> <OBJECTID>
9223372539369291790

> <PUBCHEM_COMPOUND_CID>
13783105

> <PUBCHEM_CONFORMER_RMSD>
0.6

> <PUBCHEM_CONFORMER_DIVERSEORDER>
1
22
20
19
17
9
13
21
14
12
5
23
8
7
4
6
10
2
16
11
15
3
18

> <PUBCHEM_MMFF94_PARTIAL_CHARGES>
22
1 -0.57
10 0.57
13 -0.14
14 -0.15
15 -0.15
16 -0.15
17 -0.15
18 -0.15
2 -0.57
22 0.37
25 0.37
3 -0.73
32 0.15
33 0.15
34 0.15
35 0.15
36 0.15
4 -0.73
5 0.36
7 0.36
8 0.57
9 0.14

> <PUBCHEM_EFFECTIVE_ROTOR_COUNT>
3.8

> <PUBCHEM_PHARMACOPHORE_FEATURES>
7
1 1 acceptor
1 2 acceptor
1 3 donor
1 4 donor
3 6 11 12 hydrophobe
6 13 14 15 16 17 18 rings
6 3 4 5 7 8 10 rings

> <PUBCHEM_HEAVY_ATOM_COUNT>
18

> <PUBCHEM_ATOM_DEF_STEREO_COUNT>
2

> <PUBCHEM_ATOM_UDEF_STEREO_COUNT>
0

> <PUBCHEM_BOND_DEF_STEREO_COUNT>
0

> <PUBCHEM_BOND_UDEF_STEREO_COUNT>
0

> <PUBCHEM_ISOTOPIC_ATOM_COUNT>
0

> <PUBCHEM_COMPONENT_COUNT>
1

> <PUBCHEM_CACTVS_TAUTO_COUNT>
4

> <PUBCHEM_CONFORMER_ID>
00D2504100000001

> <PUBCHEM_MMFF94_ENERGY>
57.2131

> <PUBCHEM_FEATURE_SELFOVERLAP>
35.529

> <PUBCHEM_SHAPE_FINGERPRINT>
10366900 7 18260548956963766267
10498660 4 16660912310726121405
11543360 7 17168153372289170564
11806522 49 18343865528315663680
12251169 10 10807930470872447641
12553582 1 18341622485966493627
12670546 177 17967253104550951077
12707595 3 18272089413449167321
13862211 1 18412543185419611906
14252887 29 17489591143168148022
14576447 43 18343017796028761238
15209294 21 11891337594659485260
15788980 27 17022903428094463786
1813 80 17131846364500770180
18186145 218 18261104197656645697
18222031 100 17989205941148049372
193927 3 17775015595325457173
19433438 38 18113334198232655311
19784866 170 10015590518649333523
19784866 240 16988558035697922085
200 152 18201998833192237315
20281475 54 18338802204107514248
20645477 70 18201996672760540077
20671657 53 18342740715051514145
20871999 31 18334297548250602181
21065199 12 10375882896029391349
21256008 61 18272368676412205996
21634736 98 18129377279435460175
21637258 2 16128378117320064942
221357 26 18409722963958823773
221490 88 18266181823483340211
22646028 28 17917993880146966991
231179 274 11891329850538012209
23402539 116 18130230359056794814
23402655 69 18261392204930298069
23559900 14 18336254752089432265
2748010 2 17977111476034480928
2838139 119 16154284926289489124
2871803 45 18410293605407244799
3472631 163 15719386236017384431
4921388 177 16443076010474641955

> <PUBCHEM_SHAPE_MULTIPOLES>
348.73
10.16
1.92
1.1
1.31
0.34
0.22
-2.89
3.41
-0.39
-0.46
-0.07
0.1
0.07

> <PUBCHEM_SHAPE_SELFOVERLAP>
730.974

> <PUBCHEM_SHAPE_VOLUME>
195.3

> <PUBCHEM_COORDINATE_TYPE>
2
5
10

$$$$
13783106
  SciTegic09112316443D

 26 26  0  0  1  0            999 V2000
    0.9721   -2.3409    0.0577 O   0  0
   -2.0227    2.0089    0.4293 O   0  0
    0.0419    1.0333    0.1404 N   0  0
   -1.1048   -1.3486    0.0551 N   0  0
    0.8205    0.0071   -0.5375 C   0  0  1  0  0  0
    2.3038    0.1523   -0.2381 C   0  0
   -1.9329   -0.2568   -0.4355 C   0  0  2  0  0  0
    0.2756   -1.3374   -0.0747 C   0  0
   -1.3446    1.0299    0.1271 C   0  0
    2.8180    1.4916   -0.7489 C   0  0
    2.5595    0.0024    1.2557 C   0  0
   -3.3864   -0.4419   -0.0304 C   0  0
    0.6300    0.0953   -1.6143 H   0  0
    2.8535   -0.6419   -0.7598 H   0  0
   -1.8454   -0.2295   -1.5279 H   0  0
    0.4926    1.8878    0.4506 H   0  0
   -1.5486   -2.2299    0.2960 H   0  0
    2.4253    2.3434   -0.1855 H   0  0
    3.9101    1.5313   -0.6649 H   0  0
    2.5671    1.6337   -1.8056 H   0  0
    2.0478    0.7700    1.8461 H   0  0
    3.6314    0.1090    1.4607 H   0  0
    2.2662   -0.9747    1.6478 H   0  0
   -3.4964   -0.4546    1.0599 H   0  0
   -4.0094    0.3704   -0.4191 H   0  0
   -3.7812   -1.3880   -0.4158 H   0  0
  1  8  2  0
  2  9  2  0
  3  5  1  0
  3  9  1  0
  3 16  1  0
  4  7  1  0
  4  8  1  0
  4 17  1  0
  5  6  1  0
  5  8  1  0
  5 13  1  0
  6 10  1  0
  6 11  1  0
  6 14  1  0
  7  9  1  0
  7 12  1  0
  7 15  1  0
 10 18  1  0
 10 19  1  0
 10 20  1  0
 11 21  1  0
 11 22  1  0
 11 23  1  0
 12 24  1  0
 12 25  1  0
 12 26  1  0
M  END
> <Name>
13783106

> <OBJECTID>
9223372543664259086

> <PUBCHEM_COMPOUND_CID>
13783106

> <PUBCHEM_CONFORMER_RMSD>
0.4

> <PUBCHEM_CONFORMER_DIVERSEORDER>
1
7
5
6
8
3
2
9
4

> <PUBCHEM_MMFF94_PARTIAL_CHARGES>
10
1 -0.57
16 0.37
17 0.37
2 -0.57
3 -0.73
4 -0.73
5 0.36
7 0.36
8 0.57
9 0.57

> <PUBCHEM_EFFECTIVE_ROTOR_COUNT>
1.8

> <PUBCHEM_PHARMACOPHORE_FEATURES>
6
1 1 acceptor
1 2 acceptor
1 3 donor
1 4 donor
3 6 10 11 hydrophobe
6 3 4 5 7 8 9 rings

> <PUBCHEM_HEAVY_ATOM_COUNT>
12

> <PUBCHEM_ATOM_DEF_STEREO_COUNT>
2

> <PUBCHEM_ATOM_UDEF_STEREO_COUNT>
0

> <PUBCHEM_BOND_DEF_STEREO_COUNT>
0

> <PUBCHEM_BOND_UDEF_STEREO_COUNT>
0

> <PUBCHEM_ISOTOPIC_ATOM_COUNT>
0

> <PUBCHEM_COMPONENT_COUNT>
1

> <PUBCHEM_CACTVS_TAUTO_COUNT>
4

> <PUBCHEM_CONFORMER_ID>
00D2504200000001

> <PUBCHEM_MMFF94_ENERGY>
36.8508

> <PUBCHEM_FEATURE_SELFOVERLAP>
30.455

> <PUBCHEM_SHAPE_FINGERPRINT>
12423570 1 10083484313829917350
12932764 1 17346595274660876829
13380535 21 18127143986931161289
14325111 11 18410295808799561052
15490181 8 18335709320932837586
15775835 57 18273219694132942296
16945 1 18342452677200984975
193761 8 18122909724576179527
19973954 147 18267586801701081263
20511035 2 17912070656083457391
20645476 183 17678747949493002758
21040471 1 18340769256295362726
21501502 16 18268432330548597603
22802520 49 18056510376520776822
230 275 18341326708632733350
23235685 24 18409728503701582013
23402539 116 18270954769157631124
23463225 33 18334006164662942402
23552423 10 18265055734471316439
241688 4 17687183093331707978
2748010 2 18195529186304420087
369184 2 16877654682190344605
5084963 1 18130795546603781260
53812653 8 18410016575769327156
57177213 63 18409455764704195102
7364860 26 17986108504954786566

> <PUBCHEM_SHAPE_MULTIPOLES>
225.25
4.44
1.89
0.85
0.64
0.27
0.12
-1.01
0.06
0.05
0.05
-0.48
-0.08
-0.46

> <PUBCHEM_SHAPE_SELFOVERLAP>
451.487

> <PUBCHEM_SHAPE_VOLUME>
132

> <PUBCHEM_COORDINATE_TYPE>
2
5
10

$$$$
13783108
  SciTegic09112316443D

 30 31  0  0  1  0            999 V2000
    1.5611    2.7346    0.4184 O   0  0
    2.3889   -2.4928    0.2877 O   0  0
    0.9563   -0.7111    0.5542 N   0  0
    2.9029    0.9453   -0.1259 N   0  0
    0.5090    0.5788    0.0496 C   0  0  1  0  0  0
   -0.7124    1.0742    0.8070 C   0  0
    2.9865   -0.3743   -0.7343 C   0  0  2  0  0  0
    1.6863    1.5357    0.1803 C   0  0
    2.1284   -1.3050    0.1117 C   0  0
   -1.9779    0.4155    0.3231 C   0  0
    4.4273   -0.8515   -0.8207 C   0  0
   -2.6982    0.9977   -0.7101 C   0  0
   -2.4041   -0.7637    0.9173 C   0  0
   -3.8699    0.3879   -1.1584 C   0  0
   -3.5757   -1.3735    0.4689 C   0  0
   -4.3085   -0.7976   -0.5690 C   0  0
    0.2993    0.4666   -1.0221 H   0  0
   -0.8337    2.1592    0.6905 H   0  0
   -0.5976    0.9154    1.8880 H   0  0
    2.5478   -0.3138   -1.7370 H   0  0
    0.3094   -1.2931    1.0763 H   0  0
    3.7279    1.5380   -0.1261 H   0  0
    4.8785   -0.9349    0.1745 H   0  0
    4.4877   -1.8353   -1.2978 H   0  0
    5.0354   -0.1521   -1.4043 H   0  0
   -2.3639    1.9195   -1.1777 H   0  0
   -1.8495   -1.2177    1.7332 H   0  0
   -4.4402    0.8358   -1.9669 H   0  0
   -3.9187   -2.2954    0.9293 H   0  0
   -5.2210   -1.2723   -0.9178 H   0  0
  1  8  2  0
  2  9  2  0
  3  5  1  0
  3  9  1  0
  3 21  1  0
  4  7  1  0
  4  8  1  0
  4 22  1  0
  5  6  1  0
  5  8  1  0
  5 17  1  0
  6 10  1  0
  6 18  1  0
  6 19  1  0
  7  9  1  0
  7 11  1  0
  7 20  1  0
 10 12  2  0
 10 13  1  0
 11 23  1  0
 11 24  1  0
 11 25  1  0
 12 14  1  0
 12 26  1  0
 13 15  2  0
 13 27  1  0
 14 16  2  0
 14 28  1  0
 15 16  1  0
 15 29  1  0
 16 30  1  0
M  END
> <Name>
13783108

> <OBJECTID>
9223372547959226382

> <PUBCHEM_COMPOUND_CID>
13783108

> <PUBCHEM_CONFORMER_RMSD>
0.6

> <PUBCHEM_CONFORMER_DIVERSEORDER>
2
11
13
7
10
8
4
12
5
9
3
6
1

> <PUBCHEM_MMFF94_PARTIAL_CHARGES>
22
1 -0.57
10 -0.14
12 -0.15
13 -0.15
14 -0.15
15 -0.15
16 -0.15
2 -0.57
21 0.37
22 0.37
26 0.15
27 0.15
28 0.15
29 0.15
3 -0.73
30 0.15
4 -0.73
5 0.36
6 0.14
7 0.36
8 0.57
9 0.57

> <PUBCHEM_EFFECTIVE_ROTOR_COUNT>
2.8

> <PUBCHEM_PHARMACOPHORE_FEATURES>
6
1 1 acceptor
1 2 acceptor
1 3 donor
1 4 donor
6 10 12 13 14 15 16 rings
6 3 4 5 7 8 9 rings

> <PUBCHEM_HEAVY_ATOM_COUNT>
16

> <PUBCHEM_ATOM_DEF_STEREO_COUNT>
2

> <PUBCHEM_ATOM_UDEF_STEREO_COUNT>
0

> <PUBCHEM_BOND_DEF_STEREO_COUNT>
0

> <PUBCHEM_BOND_UDEF_STEREO_COUNT>
0

> <PUBCHEM_ISOTOPIC_ATOM_COUNT>
0

> <PUBCHEM_COMPONENT_COUNT>
1

> <PUBCHEM_CACTVS_TAUTO_COUNT>
4

> <PUBCHEM_CONFORMER_ID>
00D2504400000002

> <PUBCHEM_MMFF94_ENERGY>
51.4599

> <PUBCHEM_FEATURE_SELFOVERLAP>
30.455

> <PUBCHEM_SHAPE_FINGERPRINT>
10498660 4 16660630835664962773
10608611 8 18261666065025276093
11806522 49 18343304773396459632
12251169 10 10879986956550285413
12553582 1 18339932497671065754
12707595 3 18343302560965932854
13296908 3 18412261766013309769
13705890 14 18412265047236565548
14251717 144 18412263969189029854
14252887 29 17704077266039676694
14576447 43 18413667998309293310
15219456 202 18335416924149620913
15757776 16 18411139100259117030
17834074 16 18337109063838730511
18186145 218 18260260859184414961
18915474 69 17774715480401880063
19422 9 17774731956080952457
19433438 38 18040434382208310887
200 152 18130786763427270491
20201158 50 18408323293661062939
20279233 1 18260826029277056873
20361792 2 17131826582271535113
20645477 70 18273212032169684365
20671657 53 18341898463174217836
20871999 31 18261956241426133717
21256008 61 18343302561303575524
21713013 43 18334573577319642583
221490 88 18265622150447612330
2255824 54 18270685380213811084
22646028 28 17917993867045910791
23402539 116 18129388111954806318
23402655 69 18261109617420011725
23557571 272 17604989385597878381
23559900 14 18336256920504474417
2748010 2 17903652013498411010
2838139 119 15937274320763398630
2871803 45 18407760347839110943
3323516 105 18335140929377061211
4921388 177 16515698749036049835
58051976 100 18411418410798956135
6049 1 18114188583313344129
7364860 26 18200591518190702752
93112 12 18408037407953288837
9709674 26 18263080084212569955

> <PUBCHEM_SHAPE_MULTIPOLES>
307.57
8.13
2.05
0.97
1.38
0.27
0.1
-2.81
2.56
-1.31
-0.35
0.43
0
0.55

> <PUBCHEM_SHAPE_SELFOVERLAP>
648.465

> <PUBCHEM_SHAPE_VOLUME>
171.1

> <PUBCHEM_COORDINATE_TYPE>
2
5
10

$$$$
13879946
  SciTegic09112316443D

 29 29  0  0  1  0            999 V2000
    0.2146    2.7662    0.3702 O   0  0
    1.6357   -2.3336    0.3503 O   0  0
   -0.0120   -0.7273    0.4042 N   0  0
    1.8152    1.1477    0.0281 N   0  0
   -0.5216    0.5148   -0.1582 C   0  0  1  0  0  0
   -1.8899    0.8567    0.4090 C   0  0
   -2.9800   -0.1702    0.0529 C   0  0
    2.1362   -0.1423   -0.5646 C   0  0  2  0  0  0
    0.5079    1.5935    0.1503 C   0  0
    1.2722   -1.1788    0.1406 C   0  0
   -3.1335   -0.3560   -1.4574 C   0  0
   -2.6631   -1.5157    0.7099 C   0  0
    3.6183   -0.4550   -0.4355 C   0  0
   -0.5497    0.4106   -1.2485 H   0  0
   -1.8321    0.9629    1.5008 H   0  0
   -2.2063    1.8367    0.0280 H   0  0
   -3.9297    0.2006    0.4585 H   0  0
    1.8474   -0.1111   -1.6216 H   0  0
   -0.5390   -1.3025    1.0412 H   0  0
    2.5590    1.8281    0.1533 H   0  0
   -2.2680   -0.8491   -1.9106 H   0  0
   -3.2809    0.6081   -1.9549 H   0  0
   -4.0094   -0.9781   -1.6729 H   0  0
   -1.9907   -2.1494    0.1242 H   0  0
   -3.5968   -2.0936    0.7545 H   0  0
   -2.3433   -1.4129    1.7518 H   0  0
    3.9231   -0.5074    0.6159 H   0  0
    3.8593   -1.4165   -0.9009 H   0  0
    4.2238    0.3188   -0.9193 H   0  0
  1  9  2  0
  2 10  2  0
  3  5  1  0
  3 10  1  0
  3 19  1  0
  4  8  1  0
  4  9  1  0
  4 20  1  0
  5  6  1  0
  5  9  1  0
  5 14  1  0
  6  7  1  0
  6 15  1  0
  6 16  1  0
  7 11  1  0
  7 12  1  0
  7 17  1  0
  8 10  1  0
  8 13  1  0
  8 18  1  0
 11 21  1  0
 11 22  1  0
 11 23  1  0
 12 24  1  0
 12 25  1  0
 12 26  1  0
 13 27  1  0
 13 28  1  0
 13 29  1  0
M  END
> <Name>
13879946

> <OBJECTID>
9223372552254193678

> <PUBCHEM_COMPOUND_CID>
13879946

> <PUBCHEM_CONFORMER_RMSD>
0.6

> <PUBCHEM_CONFORMER_DIVERSEORDER>
3
2
1
4

> <PUBCHEM_MMFF94_PARTIAL_CHARGES>
10
1 -0.57
10 0.57
19 0.37
2 -0.57
20 0.37
3 -0.73
4 -0.73
5 0.36
8 0.36
9 0.57

> <PUBCHEM_EFFECTIVE_ROTOR_COUNT>
2.8

> <PUBCHEM_PHARMACOPHORE_FEATURES>
6
1 1 acceptor
1 2 acceptor
1 3 donor
1 4 donor
3 7 11 12 hydrophobe
6 3 4 5 8 9 10 rings

> <PUBCHEM_HEAVY_ATOM_COUNT>
13

> <PUBCHEM_ATOM_DEF_STEREO_COUNT>
2

> <PUBCHEM_ATOM_UDEF_STEREO_COUNT>
0

> <PUBCHEM_BOND_DEF_STEREO_COUNT>
0

> <PUBCHEM_BOND_UDEF_STEREO_COUNT>
0

> <PUBCHEM_ISOTOPIC_ATOM_COUNT>
0

> <PUBCHEM_COMPONENT_COUNT>
1

> <PUBCHEM_CACTVS_TAUTO_COUNT>
4

> <PUBCHEM_CONFORMER_ID>
00D3CA8A00000003

> <PUBCHEM_MMFF94_ENERGY>
46.0783

> <PUBCHEM_FEATURE_SELFOVERLAP>
30.455

> <PUBCHEM_SHAPE_FINGERPRINT>
108231 29 18338807813524681018
11206711 2 18335426703542357844
12032990 46 18339935869584396158
12897270 3 18334858324660382359
13380535 76 17836922678700289104
14128692 85 18060136565615960997
15757776 16 18412818084152273342
16945 1 18335421261612811777
18619055 16 18115863010425605495
193761 8 17833555587495812514
20201158 50 18334294262358092515
20645477 70 18200589332511135967
21061003 4 18337405931988675873
21501502 16 18050008796725011154
23402539 116 18341332202449793206
23552423 10 18336273391798922093
23559900 14 18410020953453942286
25 1 18116138988313312181
2748010 2 18048038767813499040
3312278 4 18336835190627027720
449060 23 17846227630656839188
5493415 88 18337112374957835571
6338986 31 18195787597227863599
81228 2 18052538768332550969
8809292 202 18042133209488951227

> <PUBCHEM_SHAPE_MULTIPOLES>
245.83
5.07
2.13
0.9
0.38
0.59
0.25
-1.76
1.12
-0.57
-0.51
0.58
-0.12
0.07

> <PUBCHEM_SHAPE_SELFOVERLAP>
488.763

> <PUBCHEM_SHAPE_VOLUME>
145.2

> <PUBCHEM_COORDINATE_TYPE>
2
5
10

$$$$
13879951
  SciTegic09112316443D

 24 25  0  0  1  0            999 V2000
    1.4594   -2.1487    0.2169 O   0  0
   -0.6576    2.7081    0.3543 O   0  0
   -0.3861   -0.7652    0.0057 N   0  0
    1.1964    1.3402    0.1946 N   0  0
   -0.9405    0.4732   -0.5231 C   0  0  1  0  0  0
   -2.4104    0.4142   -0.1258 C   0  0
   -1.4238   -1.7017    0.3989 C   0  0
   -2.7060   -1.0841   -0.1414 C   0  0
    1.7980    0.1660   -0.4315 C   0  0  2  0  0  0
    0.9712   -1.0425    0.0006 C   0  0
   -0.1609    1.6163    0.0918 C   0  0
    3.2604    0.0242   -0.0411 C   0  0
   -0.8103    0.4774   -1.6114 H   0  0
   -3.0507    0.9751   -0.8131 H   0  0
   -2.5682    0.8141    0.8836 H   0  0
   -1.4290   -1.7499    1.4930 H   0  0
   -1.2218   -2.6999    0.0001 H   0  0
   -3.5854   -1.3527    0.4502 H   0  0
   -2.8736   -1.4146   -1.1737 H   0  0
    1.7066    0.2781   -1.5182 H   0  0
    1.8045    2.0806    0.5320 H   0  0
    3.7149   -0.8447   -0.5285 H   0  0
    3.8294    0.9139   -0.3312 H   0  0
    3.3717   -0.1039    1.0416 H   0  0
  1 10  2  0
  2 11  2  0
  3  5  1  0
  3  7  1  0
  3 10  1  0
  4  9  1  0
  4 11  1  0
  4 21  1  0
  5  6  1  0
  5 11  1  0
  5 13  1  0
  6  8  1  0
  6 14  1  0
  6 15  1  0
  7  8  1  0
  7 16  1  0
  7 17  1  0
  8 18  1  0
  8 19  1  0
  9 10  1  0
  9 12  1  0
  9 20  1  0
 12 22  1  0
 12 23  1  0
 12 24  1  0
M  END
> <Name>
13879951

> <OBJECTID>
9223372556549160974

> <PUBCHEM_COMPOUND_CID>
13879951

> <PUBCHEM_CONFORMER_RMSD>
0.4

> <PUBCHEM_CONFORMER_DIVERSEORDER>
1

> <PUBCHEM_MMFF94_PARTIAL_CHARGES>
10
1 -0.57
10 0.57
11 0.57
2 -0.57
21 0.37
3 -0.66
4 -0.73
5 0.36
7 0.3
9 0.36

> <PUBCHEM_EFFECTIVE_ROTOR_COUNT>
1

> <PUBCHEM_PHARMACOPHORE_FEATURES>
5
1 1 acceptor
1 2 acceptor
1 4 donor
5 3 5 6 7 8 rings
6 3 4 5 9 10 11 rings

> <PUBCHEM_HEAVY_ATOM_COUNT>
12

> <PUBCHEM_ATOM_DEF_STEREO_COUNT>
2

> <PUBCHEM_ATOM_UDEF_STEREO_COUNT>
0

> <PUBCHEM_BOND_DEF_STEREO_COUNT>
0

> <PUBCHEM_BOND_UDEF_STEREO_COUNT>
0

> <PUBCHEM_ISOTOPIC_ATOM_COUNT>
0

> <PUBCHEM_COMPONENT_COUNT>
1

> <PUBCHEM_CACTVS_TAUTO_COUNT>
2

> <PUBCHEM_CONFORMER_ID>
00D3CA8F00000001

> <PUBCHEM_MMFF94_ENERGY>
36.9857

> <PUBCHEM_FEATURE_SELFOVERLAP>
25.47

> <PUBCHEM_SHAPE_FINGERPRINT>
108231 29 18266184022437913610
12382932 28 18411983554842466235
12524768 44 18270970037661119999
12897270 3 18410293609844740926
16945 1 18409168787853344228
193761 8 18050568434915898694
20201158 50 18335979839395267639
20588541 1 18334577975065498911
21040471 1 17835242242522423060
21501502 16 18195247707106679338
2334 1 18050568739921893236
23552423 10 18188778236354693238
23559900 14 18413111672012853692
241688 4 17975693892103387648
2748010 2 18194399128647760140
5084963 1 17842283854231094771
528886 8 18411978083022547427
53812653 166 18412542132619426385
66348 1 18411418405823545579

> <PUBCHEM_SHAPE_MULTIPOLES>
225.25
3.69
2.27
0.66
0.82
0.66
-0.03
-0.9
-0.19
-0.21
0.39
-0.03
0.01
0.04

> <PUBCHEM_SHAPE_SELFOVERLAP>
471.138

> <PUBCHEM_SHAPE_VOLUME>
128.2

> <PUBCHEM_COORDINATE_TYPE>
2
5
10

$$$$
13941336
  SciTegic09112316443D

 48 51  0  0  1  0            999 V2000
    4.0373    1.0820    0.1185 O   0  0
   -0.7151    0.2702    0.2420 O   0  0
    2.5047   -3.3568    0.1471 O   0  0
   -0.0500   -3.7678    0.3024 O   0  0
   -6.8023    1.7488    0.0543 O   0  0
    3.8075    2.4837   -0.1118 C   0  0
    2.5676    2.9815    0.6443 C   0  0
    1.3246    2.1979    0.2481 C   0  0
    1.6155    0.7229    0.2167 C   0  0
    2.9385    0.2631    0.1502 C   0  0
    0.5693   -0.2164    0.2089 C   0  0
    0.8530   -1.5878    0.2005 C   0  0
    5.0461    3.2079    0.4356 C   0  0
    3.7240    2.7359   -1.6248 C   0  0
   -1.6777   -0.6344   -0.3183 C   0  0  1  0  0  0
   -1.6406   -1.9775    0.4048 C   0  0
    3.2127   -1.1081    0.1301 C   0  0
    2.1734   -2.0357    0.1592 C   0  0
   -0.2576   -2.5603    0.2805 C   0  0
   -3.0476    0.0025   -0.2186 C   0  0
   -3.7603    0.3067   -1.3777 C   0  0
   -3.5954    0.2843    1.0326 C   0  0
   -5.0224    0.8937   -1.2858 C   0  0
   -4.8575    0.8712    1.1245 C   0  0
    2.6234   -3.9836   -1.1286 C   0  0
   -5.5711    1.1760   -0.0348 C   0  0
    2.4026    4.0526    0.4779 H   0  0
    2.7262    2.8444    1.7233 H   0  0
    0.9726    2.5137   -0.7409 H   0  0
    0.5297    2.4177    0.9704 H   0  0
    5.1754    3.0052    1.5052 H   0  0
    5.9581    2.8503   -0.0563 H   0  0
    4.9771    4.2914    0.2936 H   0  0
    3.5739    3.7979   -1.8452 H   0  0
    4.6437    2.4063   -2.1222 H   0  0
    2.9122    2.1692   -2.0919 H   0  0
   -1.4265   -0.7762   -1.3799 H   0  0
   -2.3601   -2.6723   -0.0427 H   0  0
   -1.8514   -1.8885    1.4763 H   0  0
    4.2441   -1.4524    0.0924 H   0  0
   -3.3464    0.0931   -2.3594 H   0  0
   -3.0508    0.0659    1.9470 H   0  0
   -5.5681    1.1263   -2.1964 H   0  0
   -5.2785    1.0913    2.1017 H   0  0
    1.7511   -3.7796   -1.7577 H   0  0
    2.6996   -5.0634   -0.9742 H   0  0
    3.5317   -3.6373   -1.6314 H   0  0
   -7.1500    1.8899   -0.8430 H   0  0
  1  6  1  0
  1 10  1  0
  2 11  1  0
  2 15  1  0
  3 18  1  0
  3 25  1  0
  4 19  2  0
  5 26  1  0
  5 48  1  0
  6  7  1  0
  6 13  1  0
  6 14  1  0
  7  8  1  0
  7 27  1  0
  7 28  1  0
  8  9  1  0
  8 29  1  0
  8 30  1  0
  9 10  1  0
  9 11  2  0
 10 17  2  0
 11 12  1  0
 12 18  2  0
 12 19  1  0
 13 31  1  0
 13 32  1  0
 13 33  1  0
 14 34  1  0
 14 35  1  0
 14 36  1  0
 15 16  1  0
 15 20  1  0
 15 37  1  0
 16 19  1  0
 16 38  1  0
 16 39  1  0
 17 18  1  0
 17 40  1  0
 20 21  2  0
 20 22  1  0
 21 23  1  0
 21 41  1  0
 22 24  2  0
 22 42  1  0
 23 26  2  0
 23 43  1  0
 24 26  1  0
 24 44  1  0
 25 45  1  0
 25 46  1  0
 25 47  1  0
M  END
> <Name>
13941336

> <OBJECTID>
9223372560844128270

> <PUBCHEM_COMPOUND_CID>
13941336

> <PUBCHEM_CONFORMER_RMSD>
0.8

> <PUBCHEM_CONFORMER_DIVERSEORDER>
2
3
1
4
5

> <PUBCHEM_MMFF94_PARTIAL_CHARGES>
29
1 -0.36
10 0.08
11 0.08
12 0.09
15 0.42
16 0.06
17 -0.15
18 0.08
19 0.42
2 -0.36
20 -0.14
21 -0.15
22 -0.15
23 -0.15
24 -0.15
25 0.28
26 0.08
3 -0.36
4 -0.57
40 0.15
41 0.15
42 0.15
43 0.15
44 0.15
48 0.45
5 -0.53
6 0.28
8 0.14
9 -0.14

> <PUBCHEM_EFFECTIVE_ROTOR_COUNT>
3.4

> <PUBCHEM_PHARMACOPHORE_FEATURES>
10
1 1 acceptor
1 2 acceptor
1 3 acceptor
1 4 acceptor
1 5 donor
3 6 13 14 hydrophobe
6 1 6 7 8 9 10 rings
6 2 11 12 15 16 19 rings
6 20 21 22 23 24 26 rings
6 9 10 11 12 17 18 rings

> <PUBCHEM_HEAVY_ATOM_COUNT>
26

> <PUBCHEM_ATOM_DEF_STEREO_COUNT>
0

> <PUBCHEM_ATOM_UDEF_STEREO_COUNT>
1

> <PUBCHEM_BOND_DEF_STEREO_COUNT>
0

> <PUBCHEM_BOND_UDEF_STEREO_COUNT>
0

> <PUBCHEM_ISOTOPIC_ATOM_COUNT>
0

> <PUBCHEM_COMPONENT_COUNT>
1

> <PUBCHEM_CACTVS_TAUTO_COUNT>
4

> <PUBCHEM_CONFORMER_ID>
00D4BA5800000002

> <PUBCHEM_MMFF94_ENERGY>
92.6453

> <PUBCHEM_FEATURE_SELFOVERLAP>
50.817

> <PUBCHEM_SHAPE_FINGERPRINT>
10411042 1 17834677089335941482
10483366 6 18339658741847838702
10595046 47 18343576353253869189
10675989 125 18413108338169354920
10693767 8 17987802891539845670
1100329 8 18410008828213237154
11796584 16 13973960996108301853
12107183 9 18190724518877693312
12173636 292 17906731754337263126
12236239 1 17702655537792164323
12293681 160 17774167936744511512
12390115 104 18266473181010935265
12422481 6 17677314113574745956
12730499 353 18408611370281965499
12769317 202 18411971473084040881
12788726 201 17417823803047172793
13140716 1 18335982055777909738
13540713 4 18264507207039784954
13590594 115 17908432346263431610
138480 1 18122907525669410250
13878862 14 18191284019640098989
13965767 371 18042106804356952156
14790565 3 18193282012097451932
14848178 96 18411696625315792489
15081414 286 18268711597981079598
15342168 16 18335422391664094445
15420108 30 18197197334865688786
15439362 3 18411700976396874372
15475509 35 16298942035499632083
17818456 19 16985473716139362337
17980427 26 17629730574544949928
1813 80 17699013881243802887
18785283 64 18333732385977761555
19784866 34 18340767156040901064
20157964 124 18410290277683478489
20554085 129 17916568956196172984
20612939 158 18341048523943849765
20739085 24 18259991457023618060
21033648 144 18261660562934397381
21033648 29 17385716955862592957
21033650 10 15123244212591583195
21279426 13 18269849760668366628
21860390 5 18271527503104822150
22122407 14 18197793094396492969
23559900 14 18341891870779648978
23845131 108 18261110807548504811
23929065 36 17193452220707268312
24771293 8 18128800972867387338
24771750 20 18264791981078633878
3178227 256 18261397680813485114
335352 9 18410292511008223046
34797466 226 14764050290899754273
350125 39 18335701594471587300
376196 1 18338509871743655802
397830 11 18188226329928164217
44555599 121 18056479440695198889
474 4 18412540999080395651
5104073 3 18187641444336779803
5385378 56 18410857654909633160
57724786 102 18336551512976166121
6034566 193 17972049290288694165
633830 44 18272375243844417871
6443956 14 18122627150003653078
7808743 9 17972321986584457700
8272917 22 18412825754963740519
9841814 1 18116144468254238986
9981440 41 18195239142841873010

> <PUBCHEM_SHAPE_MULTIPOLES>
505.72
11.5
4.55
1.05
14.64
3.2
-0.3
-11.22
-0.87
-6.35
-0.39
0.42
-0.28
0.3

> <PUBCHEM_SHAPE_SELFOVERLAP>
1113.699

> <PUBCHEM_SHAPE_VOLUME>
272.1

> <PUBCHEM_COORDINATE_TYPE>
2
5
10

$$$$
14056365
  SciTegic09112316443D

 38 38  0  0  1  0            999 V2000
   -1.1144    0.2939    0.8771 O   0  0
   -1.5649    0.3544   -1.4169 O   0  0
    4.2426    0.7111   -0.3635 O   0  0
   -3.3808    0.1880    0.1972 C   0  0  1  0  0  0
   -4.1827    1.4189   -0.2490 C   0  0
   -3.9798   -1.0920   -0.3779 C   0  0
   -1.9309    0.2802   -0.2506 C   0  0
   -3.5942    2.7216    0.2774 C   0  0
    0.2438    0.3774    0.5630 C   0  0
    0.9800   -0.7722    0.3739 C   0  0
    0.7982    1.6356    0.4532 C   0  0
    2.3345   -0.6596    0.0603 C   0  0
    2.9208    0.6006   -0.0570 C   0  0
    2.1527    1.7482    0.1394 C   0  0
    0.3912   -2.0996    0.4908 C   0  0
    0.7739   -3.1972   -0.1977 C   0  0
    0.1335   -4.5394   -0.0518 C   0  0
    4.7766    2.0299   -0.4679 C   0  0
   -3.4144    0.1215    1.2921 H   0  0
   -5.2170    1.3268    0.1034 H   0  0
   -4.2206    1.4705   -1.3442 H   0  0
   -3.3997   -1.9673   -0.0648 H   0  0
   -3.9861   -1.0764   -1.4734 H   0  0
   -5.0104   -1.2280   -0.0341 H   0  0
   -3.5137    2.7026    1.3690 H   0  0
   -4.2386    3.5622    0.0005 H   0  0
   -2.6012    2.9145   -0.1398 H   0  0
    0.2005    2.5290    0.6067 H   0  0
    2.9647   -1.5344   -0.0811 H   0  0
    2.5433    2.7572    0.0638 H   0  0
   -0.4349   -2.1932    1.1924 H   0  0
    1.5780   -3.1422   -0.9266 H   0  0
   -0.2787   -4.8618   -1.0128 H   0  0
    0.8783   -5.2744    0.2681 H   0  0
   -0.6779   -4.5333    0.6827 H   0  0
    4.7213    2.5634    0.4870 H   0  0
    4.3084    2.5902   -1.2843 H   0  0
    5.8382    1.9300   -0.7169 H   0  0
  1  7  1  0
  1  9  1  0
  2  7  2  0
  3 13  1  0
  3 18  1  0
  4  5  1  0
  4  6  1  0
  4  7  1  0
  4 19  1  0
  5  8  1  0
  5 20  1  0
  5 21  1  0
  6 22  1  0
  6 23  1  0
  6 24  1  0
  8 25  1  0
  8 26  1  0
  8 27  1  0
  9 10  2  0
  9 11  1  0
 10 12  1  0
 10 15  1  0
 11 14  2  0
 11 28  1  0
 12 13  2  0
 12 29  1  0
 13 14  1  0
 14 30  1  0
 15 16  2  0
 15 31  1  0
 16 17  1  0
 16 32  1  0
 17 33  1  0
 17 34  1  0
 17 35  1  0
 18 36  1  0
 18 37  1  0
 18 38  1  0
M  END
> <Name>
14056365

> <OBJECTID>
9223372565139095566

> <PUBCHEM_COMPOUND_CID>
14056365

> <PUBCHEM_CONFORMER_RMSD>
0.8

> <PUBCHEM_CONFORMER_DIVERSEORDER>
1
53
60
73
34
44
32
82
58
81
52
87
76
91
68
98
94
61
14
46
39
99
83
8
74
35
102
9
56
75
12
13
77
22
36
67
95
41
80
49
28
45
43
7
23
31
17
59
71
30
96
47
37
50
85
101
84
78
97
69
63
57
88
86
3
64
25
29
10
72
33
92
55
40
62
104
11
2
51
15
54
27
48
4
66
70
24
38
103
19
20
89
42
16
21
5
90
18
26
65
6
100
79
93

> <PUBCHEM_MMFF94_PARTIAL_CHARGES>
20
1 -0.23
10 0.03
11 -0.15
12 -0.15
13 0.08
14 -0.15
15 -0.18
16 -0.29
17 0.14
18 0.28
2 -0.57
28 0.15
29 0.15
3 -0.36
30 0.15
31 0.15
32 0.15
4 0.06
7 0.66
9 0.08

> <PUBCHEM_EFFECTIVE_ROTOR_COUNT>
6

> <PUBCHEM_PHARMACOPHORE_FEATURES>
6
1 17 hydrophobe
1 2 acceptor
1 3 acceptor
1 6 hydrophobe
1 8 hydrophobe
6 9 10 11 12 13 14 rings

> <PUBCHEM_HEAVY_ATOM_COUNT>
18

> <PUBCHEM_ATOM_DEF_STEREO_COUNT>
0

> <PUBCHEM_ATOM_UDEF_STEREO_COUNT>
1

> <PUBCHEM_BOND_DEF_STEREO_COUNT>
1

> <PUBCHEM_BOND_UDEF_STEREO_COUNT>
0

> <PUBCHEM_ISOTOPIC_ATOM_COUNT>
0

> <PUBCHEM_COMPONENT_COUNT>
1

> <PUBCHEM_CACTVS_TAUTO_COUNT>
1

> <PUBCHEM_CONFORMER_ID>
00D67BAD00000001

> <PUBCHEM_MMFF94_ENERGY>
51.8614

> <PUBCHEM_FEATURE_SELFOVERLAP>
30.447

> <PUBCHEM_SHAPE_FINGERPRINT>
10411042 1 17257372942984026051
11265709 11 17400641519632693843
116883 192 17404014825769761609
12173636 292 18339076107109792133
12293681 160 17989210334968698328
12553582 1 17475518270469838651
12730499 353 18336554828648168721
12788726 201 17757544527850003258
13004483 165 16967440501220654179
13533116 47 18198050393028011469
138480 1 17834395614142621667
14178342 30 18197472083680949635
14251751 93 18130503123734412663
14415576 193 18335703797441423109
14790565 3 18410299103430373772
15442244 35 17693094068122382089
17539 30 17837487819139915518
18186145 218 17988644137529188985
19591789 44 18410855494572867858
19784866 34 18411982438172477360
201361 129 18340488842223248345
20344682 1 17894909659048975253
20645477 70 18263355894206486347
21501502 16 18336256830874221915
21524375 3 18186798127655883050
2255824 54 18195527000018847362
23402539 116 18342452660538470340
23402655 69 18413388722176645797
23419403 2 17539175749873409610
23559900 14 18124305004605318483
23598291 2 18057868178770493503
25 1 18408602530743599416
2748010 2 18265637483850267202
2871803 45 18198328736657351199
298252 57 18334577988161229058
3060560 45 18409163307649115606
3091708 16 9192408131564970202
3250762 1 17478887642079494184
394222 165 18113896044521874760
4280585 95 17552365375713020398
458136 41 18338245877036166731
58051976 378 18339922713983485183
58779409 54 17981323701350259350
58779409 8 18338243789982799798
6138700 20 18267028241990889278
633830 44 18342739585422205820
7364860 26 18194962941910843323
81228 2 17397252206415049506
81539 233 18335981973888388894
8272917 22 18268432330801727181
84936 182 18272645706293347544

> <PUBCHEM_SHAPE_MULTIPOLES>
352.82
7.65
3.98
0.81
0.78
5.37
-0.07
-6.54
-1.36
-0.53
-0.04
0.13
-0.06
-0.43

> <PUBCHEM_SHAPE_SELFOVERLAP>
717.633

> <PUBCHEM_SHAPE_VOLUME>
205.8

> <PUBCHEM_COORDINATE_TYPE>
2
5
10

$$$$
14162699
  SciTegic09112316443D

 60 63  0  0  1  0            999 V2000
    0.3908    1.8253   -0.6098 O   0  0
    1.8214    0.1867   -1.4539 O   0  0
    0.9614    5.2363    0.5956 O   0  0
    3.2204    4.7539   -1.1422 O   0  0
    4.0187    1.9199   -1.0337 O   0  0
   -1.9732    2.1913    0.7442 O   0  0
    0.5598   -2.8061    0.2894 O   0  0
   -0.7935   -0.0357   -2.3748 O   0  0
   -3.9599    3.3397    0.5215 O   0  0
   -3.1175   -1.2320   -2.4470 O   0  0
   -3.5946   -5.1021    0.2621 O   0  0
    6.5160   -1.8904    2.1145 O   0  0
   -5.8350   -0.1427    2.0508 O   0  0
   -6.2005    1.9692    1.2912 O   0  0
    1.0689    4.1315   -0.2983 C   0  0  1  0  0  0
    2.5372    3.7248   -0.4249 C   0  0  1  0  0  0
    0.2269    2.9684    0.2314 C   0  0  1  0  0  0
    2.6818    2.4001   -1.1741 C   0  0  2  0  0  0
    1.7314    1.3400   -0.6178 C   0  0  1  0  0  0
   -1.2591    3.3121    0.2558 C   0  0
    0.9848   -0.8194   -1.0215 C   0  0
    1.3645   -1.7628   -0.1406 C   0  0
   -0.3913   -0.8670   -1.5718 C   0  0
   -1.2449   -1.9687   -1.1012 C   0  0
   -3.3369    2.3338    0.8307 C   0  0
   -0.7216   -2.8846   -0.1913 C   0  0
    2.7140   -1.7966    0.4508 C   0  0
   -2.5587   -2.0995   -1.5578 C   0  0
   -3.9374    1.0604    1.3745 C   0  0
   -1.5104   -3.9397    0.2684 C   0  0
    3.7346   -2.5086   -0.1801 C   0  0
    2.9720   -1.1162    1.6411 C   0  0
   -3.3457   -3.1553   -1.0963 C   0  0
   -2.8228   -4.0737   -0.1850 C   0  0
    5.0120   -2.5403    0.3790 C   0  0
    4.2497   -1.1479    2.2001 C   0  0
   -5.4329    1.0558    1.5522 C   0  0
    5.2697   -1.8599    1.5691 C   0  0
    0.7014    4.4585   -1.2797 H   0  0
    3.0136    3.6700    0.5609 H   0  0
    0.5291    2.6983    1.2525 H   0  0
    2.5064    2.5504   -2.2466 H   0  0
    2.0325    1.0808    0.4026 H   0  0
   -1.4514    4.1720    0.9062 H   0  0
   -1.6088    3.5357   -0.7595 H   0  0
    0.0860    5.6387    0.4678 H   0  0
    2.8308    4.8134   -2.0312 H   0  0
    4.0707    1.0637   -1.4923 H   0  0
   -3.4863    0.8746    2.3555 H   0  0
   -3.6825    0.2523    0.6801 H   0  0
   -1.0988   -4.6530    0.9782 H   0  0
    3.5490   -3.0439   -1.1081 H   0  0
    2.1857   -0.5653    2.1516 H   0  0
   -4.3695   -3.2641   -1.4464 H   0  0
    5.8026   -3.0965   -0.1173 H   0  0
    4.4368   -0.6153    3.1287 H   0  0
   -2.4881   -0.5333   -2.6824 H   0  0
   -3.0751   -5.6387    0.8851 H   0  0
    6.5142   -1.3668    2.9343 H   0  0
   -6.8075   -0.1791    2.1745 H   0  0
  1 17  1  0
  1 19  1  0
  2 19  1  0
  2 21  1  0
  3 15  1  0
  3 46  1  0
  4 16  1  0
  4 47  1  0
  5 18  1  0
  5 48  1  0
  6 20  1  0
  6 25  1  0
  7 22  1  0
  7 26  1  0
  8 23  2  0
  9 25  2  0
 10 28  1  0
 10 57  1  0
 11 34  1  0
 11 58  1  0
 12 38  1  0
 12 59  1  0
 13 37  1  0
 13 60  1  0
 14 37  2  0
 15 16  1  0
 15 17  1  0
 15 39  1  0
 16 18  1  0
 16 40  1  0
 17 20  1  0
 17 41  1  0
 18 19  1  0
 18 42  1  0
 19 43  1  0
 20 44  1  0
 20 45  1  0
 21 22  2  0
 21 23  1  0
 22 27  1  0
 23 24  1  0
 24 26  1  0
 24 28  2  0
 25 29  1  0
 26 30  2  0
 27 31  2  0
 27 32  1  0
 28 33  1  0
 29 37  1  0
 29 49  1  0
 29 50  1  0
 30 34  1  0
 30 51  1  0
 31 35  1  0
 31 52  1  0
 32 36  2  0
 32 53  1  0
 33 34  2  0
 33 54  1  0
 35 38  2  0
 35 55  1  0
 36 38  1  0
 36 56  1  0
M  END
> <Name>
14162699

> <OBJECTID>
9223372569434062862

> <PUBCHEM_COMPOUND_CID>
14162699

> <PUBCHEM_CONFORMER_RMSD>
1

> <PUBCHEM_CONFORMER_DIVERSEORDER>
1
15
84
77
113
116
5
82
23
16
8
86
2
10
90
35
91
42
59
34
94
88
29
26
52
78
40
105
44
73
119
4
37
36
19
25
99
108
110
106
98
121
3
18
85
30
74
27
111
117
45
17
13
71
112
21
115
65
114
12
53
81
89
87
104
46
6
9
43
47
69
67
68
80
32
64
11
48
101
76
38
41
96
75
103
54
62
95
20
14
102
107
63
83
70
60
56
61
28
22
58
33
57
49
109
31
120
72
51
79
7
24
55
122
118
92
93
39
66
100
50
97

> <PUBCHEM_MMFF94_PARTIAL_CHARGES>
51
1 -0.56
10 -0.53
11 -0.53
12 -0.53
13 -0.65
14 -0.57
15 0.28
16 0.28
17 0.28
18 0.28
19 0.56
2 -0.36
20 0.28
21 0.09
22 0.05
23 0.47
24 0.09
25 0.66
26 0.08
27 0.03
28 0.08
29 0.12
3 -0.68
30 -0.15
31 -0.15
32 -0.15
33 -0.15
34 0.08
35 -0.15
36 -0.15
37 0.66
38 0.08
4 -0.68
46 0.4
47 0.4
48 0.4
5 -0.68
51 0.15
52 0.15
53 0.15
54 0.15
55 0.15
56 0.15
57 0.45
58 0.45
59 0.45
6 -0.43
60 0.5
7 -0.16
8 -0.57
9 -0.57

> <PUBCHEM_EFFECTIVE_ROTOR_COUNT>
9.2

> <PUBCHEM_PHARMACOPHORE_FEATURES>
22
1 1 acceptor
1 10 donor
1 11 donor
1 12 donor
1 13 acceptor
1 14 acceptor
1 2 acceptor
1 29 anion
1 3 acceptor
1 3 donor
1 4 acceptor
1 4 donor
1 5 acceptor
1 5 donor
1 7 acceptor
1 8 acceptor
1 9 acceptor
3 13 14 37 anion
6 1 15 16 17 18 19 rings
6 24 26 28 30 33 34 rings
6 27 31 32 35 36 38 rings
6 7 21 22 23 24 26 rings

> <PUBCHEM_HEAVY_ATOM_COUNT>
38

> <PUBCHEM_ATOM_DEF_STEREO_COUNT>
5

> <PUBCHEM_ATOM_UDEF_STEREO_COUNT>
0

> <PUBCHEM_BOND_DEF_STEREO_COUNT>
0

> <PUBCHEM_BOND_UDEF_STEREO_COUNT>
0

> <PUBCHEM_ISOTOPIC_ATOM_COUNT>
0

> <PUBCHEM_COMPONENT_COUNT>
1

> <PUBCHEM_CACTVS_TAUTO_COUNT>
57

> <PUBCHEM_CONFORMER_ID>
00D81B0B00000001

> <PUBCHEM_MMFF94_ENERGY>
107.6267

> <PUBCHEM_FEATURE_SELFOVERLAP>
112.083

> <PUBCHEM_SHAPE_FINGERPRINT>
10006869 2 18126008402380033743
10074138 170 17977913866642517834
10653451 467 17482278110564376071
10675989 125 17474955801172615185
1100329 8 18410573959534738911
11115154 58 17411569841290704511
11421498 54 17835525203362724003
12156800 1 17914043454890401033
12608794 3 18336255765790865519
12788726 201 17622168283708215809
131258 38 18040727990647604995
13540713 4 17389353199181585279
13947930 73 18041577879203093859
140371 6 18339345423161240694
14117953 113 18124884460883066205
14955137 171 18191596258944985930
15264996 151 18048038756200273971
15351339 4 17765719409328625809
15475509 84 18337675346977476187
16112460 7 18335699472726042507
16728300 4 17607803898820297451
17627616 140 18193277614108521393
21033648 29 17841696435822537336
21344244 78 17908399683175159746
21796203 349 18048633401756994729
4403749 210 18120643640050096704
469060 322 18193816177121247171
6442390 28 17691681196055197162
9961470 85 18270098228204404641

> <PUBCHEM_SHAPE_MULTIPOLES>
699.85
10.72
7.45
1.94
1.4
3.73
-0.08
-2.79
-7.84
1.3
0.52
0.18
-0.34
-4.28

> <PUBCHEM_SHAPE_SELFOVERLAP>
1525.326

> <PUBCHEM_SHAPE_VOLUME>
375

> <PUBCHEM_COORDINATE_TYPE>
2
5
10

$$$$
15959354
  SciTegic09112316443D

 55 58  0  0  1  0            999 V2000
    0.6400   -0.3745   -1.3219 O   0  0
    4.6431   -3.1739    1.3861 O   0  0
    4.2288   -3.5456   -1.4536 O   0  0
    1.5710   -2.9559   -2.2744 O   0  0
    2.7072   -0.0055    3.3097 O   0  0
   -2.2847    1.3586    0.1030 O   0  0
   -1.2325   -2.4106   -1.0334 O   0  0
   -3.5919   -3.2885   -0.3264 O   0  0
   -6.6055   -0.0759    1.4463 O   0  0
    2.2517    4.0877    1.5338 O   0  0
    2.2477    5.6430   -0.7683 O   0  0
    2.9557   -1.4583    1.4297 C   0  0  2  0  0  0
    3.9495   -2.2405    0.5562 C   0  0  2  0  0  0
    2.0823   -0.5423    0.5695 C   0  0
    1.3495   -1.3182   -0.5208 C   0  0  2  0  0  0
    3.2433   -3.0058   -0.5678 C   0  0  1  0  0  0
    2.3200   -2.1109   -1.3964 C   0  0  1  0  0  0
    3.6796   -0.6433    2.5053 C   0  0
   -0.6213   -0.1324   -0.8225 C   0  0
   -1.0359    1.0870   -0.4336 C   0  0
   -1.5528   -1.2790   -0.6948 C   0  0
   -2.8813   -0.9820   -0.1374 C   0  0
   -0.1749    2.2802   -0.5181 C   0  0
   -3.1784    0.3273    0.2341 C   0  0
   -3.8321   -1.9934    0.0205 C   0  0
   -4.4306    0.6342    0.7675 C   0  0
    0.6430    2.6282    0.5572 C   0  0
   -0.1770    3.0618   -1.6737 C   0  0
   -5.0839   -1.6839    0.5536 C   0  0
   -5.3828   -0.3728    0.9264 C   0  0
    1.4585    3.7568    0.4769 C   0  0
    0.6385    4.1905   -1.7539 C   0  0
    1.4562    4.5381   -0.6786 C   0  0
    2.2953   -2.1687    1.9478 H   0  0
    4.7068   -1.5669    0.1376 H   0  0
    1.3430   -0.0527    1.2095 H   0  0
    2.6856    0.2575    0.1205 H   0  0
    0.7010   -2.0426   -0.0176 H   0  0
    2.6929   -3.8657   -0.1678 H   0  0
    2.9015   -1.4371   -2.0378 H   0  0
    4.3255    0.1199    2.0584 H   0  0
    4.2882   -1.2869    3.1483 H   0  0
    3.9867   -3.7802    1.7699 H   0  0
    4.7485   -2.8062   -1.8125 H   0  0
    0.9641   -2.3861   -2.7773 H   0  0
    3.1837    0.5111    3.9816 H   0  0
   -4.6590    1.6570    1.0569 H   0  0
    0.6346    2.0441    1.4738 H   0  0
   -0.8092    2.8035   -2.5198 H   0  0
   -5.8297   -2.4651    0.6797 H   0  0
    0.6270    4.7903   -2.6599 H   0  0
   -2.6962   -3.3845   -0.6845 H   0  0
   -6.6400    0.8749    1.6481 H   0  0
    2.7461    4.8938    1.3047 H   0  0
    2.1149    6.0579   -1.6379 H   0  0
  1 15  1  0
  1 19  1  0
  2 13  1  0
  2 43  1  0
  3 16  1  0
  3 44  1  0
  4 17  1  0
  4 45  1  0
  5 18  1  0
  5 46  1  0
  6 20  1  0
  6 24  1  0
  7 21  2  0
  8 25  1  0
  8 52  1  0
  9 30  1  0
  9 53  1  0
 10 31  1  0
 10 54  1  0
 11 33  1  0
 11 55  1  0
 12 13  1  0
 12 14  1  0
 12 18  1  0
 12 34  1  0
 13 16  1  0
 13 35  1  0
 14 15  1  0
 14 36  1  0
 14 37  1  0
 15 17  1  0
 15 38  1  0
 16 17  1  0
 16 39  1  0
 17 40  1  0
 18 41  1  0
 18 42  1  0
 19 20  2  0
 19 21  1  0
 20 23  1  0
 21 22  1  0
 22 24  1  0
 22 25  2  0
 23 27  2  0
 23 28  1  0
 24 26  2  0
 25 29  1  0
 26 30  1  0
 26 47  1  0
 27 31  1  0
 27 48  1  0
 28 32  2  0
 28 49  1  0
 29 30  2  0
 29 50  1  0
 31 33  2  0
 32 33  1  0
 32 51  1  0
M  END
> <Name>
15959354

> <OBJECTID>
9223372573729030158

> <PUBCHEM_COMPOUND_CID>
15959354

> <PUBCHEM_CONFORMER_RMSD>
0.8

> <PUBCHEM_CONFORMER_DIVERSEORDER>
1
40
8
50
31
3
16
30
44
47
13
43
49
34
26
39
32
7
37
41
22
25
19
23
35
15
29
24
4
2
45
14
42
20
33
28
36
48
5
38
46
21
12
27
6
18
11
9
17
10

> <PUBCHEM_MMFF94_PARTIAL_CHARGES>
44
1 -0.36
10 -0.53
11 -0.53
13 0.28
15 0.28
16 0.28
17 0.28
18 0.28
19 0.09
2 -0.68
20 0.05
21 0.47
22 0.09
23 0.03
24 0.08
25 0.08
26 -0.15
27 -0.15
28 -0.15
29 -0.15
3 -0.68
30 0.08
31 0.08
32 -0.15
33 0.08
4 -0.68
43 0.4
44 0.4
45 0.4
46 0.4
47 0.15
48 0.15
49 0.15
5 -0.68
50 0.15
51 0.15
52 0.45
53 0.45
54 0.45
55 0.45
6 -0.16
7 -0.57
8 -0.53
9 -0.53

> <PUBCHEM_EFFECTIVE_ROTOR_COUNT>
5.2

> <PUBCHEM_PHARMACOPHORE_FEATURES>
19
1 1 acceptor
1 10 donor
1 11 donor
1 2 acceptor
1 2 donor
1 3 acceptor
1 3 donor
1 4 acceptor
1 4 donor
1 5 acceptor
1 5 donor
1 6 acceptor
1 7 acceptor
1 8 donor
1 9 donor
6 12 13 14 15 16 17 rings
6 22 24 25 26 29 30 rings
6 23 27 28 31 32 33 rings
6 6 19 20 21 22 24 rings

> <PUBCHEM_HEAVY_ATOM_COUNT>
33

> <PUBCHEM_ATOM_DEF_STEREO_COUNT>
5

> <PUBCHEM_ATOM_UDEF_STEREO_COUNT>
0

> <PUBCHEM_BOND_DEF_STEREO_COUNT>
0

> <PUBCHEM_BOND_UDEF_STEREO_COUNT>
0

> <PUBCHEM_ISOTOPIC_ATOM_COUNT>
0

> <PUBCHEM_COMPONENT_COUNT>
1

> <PUBCHEM_CACTVS_TAUTO_COUNT>
162

> <PUBCHEM_CONFORMER_ID>
00F3853A00000001

> <PUBCHEM_MMFF94_ENERGY>
104.2562

> <PUBCHEM_FEATURE_SELFOVERLAP>
96.483

> <PUBCHEM_SHAPE_FINGERPRINT>
10554248 39 9510357101400963915
11991303 11 8026254021840204833
12156800 1 15335789658553331432
12160290 23 17615947938249459364
12342043 65 17341827625135762094
12422481 6 18123157295239948624
12788726 201 17899712171299840906
13140716 1 18051138291245576869
133893 2 18046326789876086837
13540713 5 18129107895825824951
13642711 20 8408771909931471969
14363568 33 18340755023417939592
14790565 3 17763469812791101661
14955137 171 18342746260123357468
15420108 30 17983290718545302301
15475509 35 17168153368801442739
15664445 248 18340504347440121028
15684970 41 18187088390152182058
15775530 1 18188755245806715469
17980427 23 17917422138606591703
1813 80 18335423435119587995
19309040 13 14906466823910627978
20600515 1 18054803788345788645
20642791 268 18271237339102997545
20739085 24 18343584044807105714
21033648 29 17773585032530950539
21133665 82 17833004011355420108
21421861 104 18336270153810416641
21796203 349 17760418444791050515
22956985 138 18189610725692184850
23366157 5 18189906490177771525
23559900 14 18059309728951686695
3380486 145 17984668213484035916
3411729 13 18192999442167324833
376196 1 17268090337901908765
394222 165 18049165771759168977
4409770 3 17682953298138775397
57527358 35 14276847677670217125
6287921 2 18129087000044876578
6679774 75 17827351387647797312
79837 15 17185039903717647519
9841814 1 18187085078763453387
9981440 41 17689163730754191755

> <PUBCHEM_SHAPE_MULTIPOLES>
614.56
9.44
6.56
1.98
11.65
8.81
-0.84
-9.04
-5.08
-7.61
2.41
-2.17
-0.31
0.18

> <PUBCHEM_SHAPE_SELFOVERLAP>
1351.245

> <PUBCHEM_SHAPE_VOLUME>
328.5

> <PUBCHEM_COORDINATE_TYPE>
2
5
10

$$$$
16401639
  SciTegic09112316443D

 95100  0  0  1  0            999 V2000
   -1.0209   -0.3118    1.3134 O   0  0
    6.9874    1.8164   -1.8053 O   0  0
    4.9964    1.9150   -0.6999 O   0  0
   -0.3905    1.9289    1.4747 O   0  0
   -2.8302    0.3687   -0.7533 O   0  0
   -3.7599    3.1553   -0.5277 O   0  0
   -1.5127    4.9535   -0.2589 O   0  0
   -4.5402   -0.8512    0.2624 O   0  0
    1.7169    3.5777    2.1039 O   0  0
   -4.5597    0.9504   -2.9162 O   0  0
   -6.6160   -1.1298   -3.2704 O   0  0
   -7.9606   -1.6604   -0.7670 O   0  0
   -5.5440   -1.6101    2.7063 O   0  0
    2.4908   -1.2911    1.5441 C   0  0  2  0  0  0
    2.7693   -2.0379    0.1899 C   0  0  2  0  0  0
    3.7688   -1.3177   -0.8158 C   0  0  1  0  0  0
    5.0309   -0.8325   -0.0226 C   0  0  2  0  0  0
    1.4027   -0.2185    1.3891 C   0  0
    0.1600   -1.0726    1.1478 C   0  0  2  0  0  0
    3.7795   -0.7486    2.1684 C   0  0
    1.4639   -2.5582   -0.4779 C   0  0
    1.7866   -2.2470    2.5598 C   0  0
    4.6467    0.0340    1.1922 C   0  0
    6.1622   -0.2058   -0.9107 C   0  0  2  0  0  0
    4.2248   -2.3651   -1.8920 C   0  0
    0.2204   -1.6874   -0.2542 C   0  0
    0.3225   -2.1286    2.2144 C   0  0
    3.0889   -0.1513   -1.5712 C   0  0
    6.2503   -0.8851   -2.2984 C   0  0
    5.7036   -2.3040   -2.2804 C   0  0
    7.5254   -0.3581   -0.1998 C   0  0
    5.9569    1.2791   -1.1076 C   0  0
   -0.6530   -2.8278    2.8051 C   0  0
   -0.9502    0.9340    0.6206 C   0  0  2  0  0  0
   -2.3689    1.3219    0.2038 C   0  0  1  0  0  0
   -2.4043    2.7196   -0.4143 C   0  0  2  0  0  0
   -0.2687    3.1983    0.8308 C   0  0  1  0  0  0
   -1.6545    3.7286    0.4557 C   0  0  1  0  0  0
    0.4527    4.1354    1.7943 C   0  0
   -4.2434    0.1887   -0.6665 C   0  0  2  0  0  0
   -4.7580   -0.1739   -2.0595 C   0  0  1  0  0  0
   -6.2441   -0.5318   -2.0275 C   0  0  2  0  0  0
   -5.9444   -1.0655    0.4149 C   0  0  1  0  0  0
   -6.5487   -1.5315   -0.9118 C   0  0  1  0  0  0
   -6.1345   -2.1025    1.5172 C   0  0
    3.3142   -2.9488    0.4884 H   0  0
    5.4672   -1.7494    0.4067 H   0  0
    1.6172    0.4962    0.5991 H   0  0
    1.3122    0.3630    2.3180 H   0  0
    4.3703   -1.5863    2.5633 H   0  0
    3.5481   -0.1107    3.0311 H   0  0
    1.5943   -2.7402   -1.5498 H   0  0
    1.2512   -3.5498   -0.0539 H   0  0
    2.1484   -3.2769    2.4743 H   0  0
    1.9409   -1.9042    3.5905 H   0  0
    4.0665    0.9206    0.9375 H   0  0
    5.5416    0.3731    1.7246 H   0  0
    4.0301   -3.3892   -1.5489 H   0  0
    3.6209   -2.2492   -2.8017 H   0  0
    0.1966   -0.9202   -1.0332 H   0  0
   -0.6798   -2.2896   -0.4368 H   0  0
    2.8456    0.6962   -0.9341 H   0  0
    3.7120    0.2354   -2.3815 H   0  0
    2.1628   -0.4734   -2.0553 H   0  0
    5.7076   -0.3087   -3.0578 H   0  0
    7.2889   -0.9116   -2.6527 H   0  0
    5.8363   -2.7663   -3.2656 H   0  0
    6.2900   -2.9104   -1.5786 H   0  0
    8.3609   -0.0108   -0.8191 H   0  0
    7.5645    0.2172    0.7316 H   0  0
    7.7260   -1.4071    0.0457 H   0  0
   -1.6918   -2.6909    2.5255 H   0  0
   -0.4284   -3.5548    3.5781 H   0  0
   -0.3507    0.8638   -0.2933 H   0  0
   -3.0070    1.2878    1.0992 H   0  0
    6.8719    2.7804   -1.9449 H   0  0
   -2.0020    2.7027   -1.4341 H   0  0
    0.3628    3.0786   -0.0602 H   0  0
   -2.2382    3.9430    1.3594 H   0  0
   -0.1052    4.2364    2.7312 H   0  0
    0.6038    5.1257    1.3542 H   0  0
   -4.7438    1.1008   -0.3290 H   0  0
   -4.1331    3.2196    0.3680 H   0  0
   -0.9847    4.7767   -1.0562 H   0  0
   -4.1731   -1.0000   -2.4811 H   0  0
   -6.8616    0.3683   -1.9252 H   0  0
    2.1562    4.1869    2.7214 H   0  0
   -6.4066   -0.1272    0.7509 H   0  0
   -6.1564   -2.5189   -1.1846 H   0  0
   -5.0620    1.6994   -2.5521 H   0  0
   -7.1942   -2.2987    1.7063 H   0  0
   -5.6324   -3.0413    1.2601 H   0  0
   -6.0707   -1.9246   -3.3989 H   0  0
   -8.3169   -0.7924   -0.5117 H   0  0
   -5.6711   -2.2878    3.3920 H   0  0
  1 19  1  0
  1 34  1  0
  2 32  1  0
  2 76  1  0
  3 32  2  0
  4 34  1  0
  4 37  1  0
  5 35  1  0
  5 40  1  0
  6 36  1  0
  6 83  1  0
  7 38  1  0
  7 84  1  0
  8 40  1  0
  8 43  1  0
  9 39  1  0
  9 87  1  0
 10 41  1  0
 10 90  1  0
 11 42  1  0
 11 93  1  0
 12 44  1  0
 12 94  1  0
 13 45  1  0
 13 95  1  0
 14 15  1  0
 14 18  1  0
 14 20  1  0
 14 22  1  0
 15 16  1  0
 15 21  1  0
 15 46  1  0
 16 17  1  0
 16 25  1  0
 16 28  1  0
 17 23  1  0
 17 24  1  0
 17 47  1  0
 18 19  1  0
 18 48  1  0
 18 49  1  0
 19 26  1  0
 19 27  1  0
 20 23  1  0
 20 50  1  0
 20 51  1  0
 21 26  1  0
 21 52  1  0
 21 53  1  0
 22 27  1  0
 22 54  1  0
 22 55  1  0
 23 56  1  0
 23 57  1  0
 24 29  1  0
 24 31  1  0
 24 32  1  0
 25 30  1  0
 25 58  1  0
 25 59  1  0
 26 60  1  0
 26 61  1  0
 27 33  2  0
 28 62  1  0
 28 63  1  0
 28 64  1  0
 29 30  1  0
 29 65  1  0
 29 66  1  0
 30 67  1  0
 30 68  1  0
 31 69  1  0
 31 70  1  0
 31 71  1  0
 33 72  1  0
 33 73  1  0
 34 35  1  0
 34 74  1  0
 35 36  1  0
 35 75  1  0
 36 38  1  0
 36 77  1  0
 37 38  1  0
 37 39  1  0
 37 78  1  0
 38 79  1  0
 39 80  1  0
 39 81  1  0
 40 41  1  0
 40 82  1  0
 41 42  1  0
 41 85  1  0
 42 44  1  0
 42 86  1  0
 43 44  1  0
 43 45  1  0
 43 88  1  0
 44 89  1  0
 45 91  1  0
 45 92  1  0
M  END
> <Name>
16401639

> <OBJECTID>
9223372578023997454

> <PUBCHEM_COMPOUND_CID>
16401639

> <PUBCHEM_CONFORMER_RMSD>
1.2

> <PUBCHEM_CONFORMER_DIVERSEORDER>
1
20
36
26
17
31
47
3
37
35
19
45
46
30
27
12
16
40
38
39
44
24
49
50
42
34
28
23
11
9
29
25
43
7
4
10
48
33
2
14
21
6
18
8
13
51
15
22
5
41
32

> <PUBCHEM_MMFF94_PARTIAL_CHARGES>
41
1 -0.56
10 -0.68
11 -0.68
12 -0.68
13 -0.68
19 0.42
2 -0.65
22 0.14
24 0.06
27 -0.28
3 -0.57
32 0.66
33 -0.3
34 0.56
35 0.28
36 0.28
37 0.28
38 0.28
39 0.28
4 -0.56
40 0.56
41 0.28
42 0.28
43 0.28
44 0.28
45 0.28
5 -0.56
6 -0.68
7 -0.68
72 0.15
73 0.15
76 0.5
8 -0.56
83 0.4
84 0.4
87 0.4
9 -0.68
90 0.4
93 0.4
94 0.4
95 0.4

> <PUBCHEM_EFFECTIVE_ROTOR_COUNT>
11.4

> <PUBCHEM_PHARMACOPHORE_FEATURES>
26
1 1 acceptor
1 10 acceptor
1 10 donor
1 11 acceptor
1 11 donor
1 12 acceptor
1 12 donor
1 13 acceptor
1 13 donor
1 2 acceptor
1 3 acceptor
1 4 acceptor
1 5 acceptor
1 6 acceptor
1 6 donor
1 7 acceptor
1 7 donor
1 8 acceptor
1 9 acceptor
1 9 donor
3 2 3 32 anion
6 14 15 16 17 20 23 rings
6 16 17 24 25 29 30 rings
6 4 34 35 36 37 38 rings
6 8 40 41 42 43 44 rings
8 14 15 18 19 21 22 26 27 rings

> <PUBCHEM_HEAVY_ATOM_COUNT>
45

> <PUBCHEM_ATOM_DEF_STEREO_COUNT>
16

> <PUBCHEM_ATOM_UDEF_STEREO_COUNT>
0

> <PUBCHEM_BOND_DEF_STEREO_COUNT>
0

> <PUBCHEM_BOND_UDEF_STEREO_COUNT>
0

> <PUBCHEM_ISOTOPIC_ATOM_COUNT>
0

> <PUBCHEM_COMPONENT_COUNT>
1

> <PUBCHEM_CACTVS_TAUTO_COUNT>
1

> <PUBCHEM_CONFORMER_ID>
00FA44E700000001

> <PUBCHEM_MMFF94_ENERGY>
177.8629

> <PUBCHEM_FEATURE_SELFOVERLAP>
132.182

> <PUBCHEM_SHAPE_FINGERPRINT>
10169797 241 18340472461170437881
10462674 369 17822580512074000619
10794284 68 17986700141517453377
10928967 22 16772930524756363799
11672396 43 18261950731590410930
12107183 9 10663814195906160867
12422481 6 10592041349710263024
12788726 201 18334295344547479026
1361 2 17916860352578959144
13690498 29 18271517620712342357
13782708 43 17274816905311648990
13811026 1 18409730664734815478
13911987 19 18259701203434233547
14040221 97 17464275081439819348
14415361 349 17273109488608244295
14767858 380 18333726918489317785
14932701 244 18337965492938860229
15320295 40 18187916267337718900
15361156 5 18412543181425156205
15669420 48 17917988404596544444
17909252 39 17702663242757752144
20511986 3 14562794535890780183
20775438 99 17771038765074275854
22122407 14 13985248633997890070
22440779 20 16486971739949059105
23522609 53 16700920312623156082
24771750 20 17833274494629351541
249057 25 17896312520423119098
3117164 225 8574413319354113494
354706 132 17968666999511728132
3886686 26 8904172409033628038
4258327 124 16444778114672553310
437795 51 18265051504028659201
44344687 77 18339932610025848609
5171179 24 17831588939256930299
57527295 17 18052557478228561086
5912855 24 18194686960745820539
6058803 2 17684356270448261369
6086070 43 14996869700454158598
6669772 16 17982720072063850848
77296 10 16443062785785359163
86090 222 18265315382609092785

> <PUBCHEM_SHAPE_MULTIPOLES>
849.78
18.44
4.39
2.92
6.9
5.94
0.12
-7.87
13.29
1.63
-1.75
0.91
-1.42
0.79

> <PUBCHEM_SHAPE_SELFOVERLAP>
1817.135

> <PUBCHEM_SHAPE_VOLUME>
463.4

> <PUBCHEM_COORDINATE_TYPE>
2
5
10

$$$$
21575008
  SciTegic09112316442D

133141  0  0  1  0            999 V2000
   10.8882    4.0403    0.0000 O   0  0
    9.1158    4.9351    0.0000 O   0  0
    9.4651   -4.2038    0.0000 O   0  0
    7.7331   -4.2038    0.0000 O   0  0
    9.4651   -6.2038    0.0000 O   0  0
    7.7331   -7.2038    0.0000 O   0  0
    6.0010   -6.2038    0.0000 O   0  0
   10.3312   -4.7038    0.0000 O   0  0
    6.0010   -3.2038    0.0000 O   0  0
    5.1350   -4.7038    0.0000 O   0  0
   11.1972   -7.2038    0.0000 O   0  0
   12.9292   -6.2038    0.0000 O   0  0
   12.9292   -4.2038    0.0000 O   0  0
    4.2690   -7.2038    0.0000 O   0  0
    2.5369   -6.2038    0.0000 O   0  0
   12.0632   -2.7038    0.0000 O   0  0
    2.5369   -4.2038    0.0000 O   0  0
    9.4944    1.9931    0.0000 C   0  0  1  0  0  0
   10.3623    1.4965    0.0000 C   0  0  2  0  0  0
   10.3662    0.4965    0.0000 C   0  0  1  0  0  0
    9.6999    2.9657    0.0000 C   0  0  2  0  0  0
    9.5021   -0.0069    0.0000 C   0  0  1  0  0  0
   10.6882    3.0726    0.0000 C   0  0  2  0  0  0
    9.4901   -1.0484    0.0000 C   0  0  2  0  0  0
   11.0968    2.1664    0.0000 C   0  0
    8.6303    1.4898    0.0000 C   0  0
    8.6342    0.4898    0.0000 C   0  0
    9.2976    3.8683    0.0000 C   0  0  1  0  0  0
   10.3901   -1.5727    0.0000 C   0  0  2  0  0  0
   11.2781   -0.0069    0.0000 C   0  0
   10.0305    4.5311    0.0000 C   0  0  1  0  0  0
   11.2902   -1.0484    0.0000 C   0  0
    8.6264    2.4898    0.0000 C   0  0
    8.5402   -1.5727    0.0000 C   0  0
   10.4027   -2.6576    0.0000 C   0  0
    8.6260   -0.5451    0.0000 C   0  0
    8.5276   -2.6576    0.0000 C   0  0
    8.3192    4.0750    0.0000 C   0  0
    9.4651   -3.2038    0.0000 C   0  0  2  0  0  0
   10.8378    5.1213    0.0000 C   0  0
   10.7303    6.1155    0.0000 C   0  0
    9.0083    5.9293    0.0000 C   0  0
    9.8155    6.5195    0.0000 C   0  0  1  0  0  0
    9.7080    7.5138    0.0000 C   0  0
    8.5991   -4.7038    0.0000 C   0  0  2  0  0  0
    8.5991   -5.7038    0.0000 C   0  0  1  0  0  0
    7.7331   -6.2038    0.0000 C   0  0  2  0  0  0
    6.8671   -4.7038    0.0000 C   0  0  1  0  0  0
    6.8671   -5.7038    0.0000 C   0  0  1  0  0  0
    6.0010   -4.2038    0.0000 C   0  0
   10.3312   -5.7038    0.0000 C   0  0  2  0  0  0
   11.1972   -6.2038    0.0000 C   0  0  1  0  0  0
    5.1350   -5.7038    0.0000 C   0  0  2  0  0  0
   12.0632   -5.7038    0.0000 C   0  0  2  0  0  0
   11.1972   -4.2038    0.0000 C   0  0  1  0  0  0
   12.0632   -4.7038    0.0000 C   0  0  1  0  0  0
    4.2690   -6.2038    0.0000 C   0  0  1  0  0  0
    3.4030   -5.7038    0.0000 C   0  0  2  0  0  0
   11.1972   -3.2038    0.0000 C   0  0
    4.2690   -4.2038    0.0000 C   0  0
    3.4030   -4.7038    0.0000 C   0  0  2  0  0  0
   11.1406    1.1548    0.0000 H   0  0
   11.0974    0.9300    0.0000 H   0  0
    8.8546    2.8762    0.0000 H   0  0
   10.2366   -0.4347    0.0000 H   0  0
   11.5330    3.1658    0.0000 H   0  0
   11.4642    1.6670    0.0000 H   0  0
   11.6321    2.4792    0.0000 H   0  0
    8.4160    2.0716    0.0000 H   0  0
    8.0201    1.3798    0.0000 H   0  0
    8.0232    0.5951    0.0000 H   0  0
    8.4244   -0.0936    0.0000 H   0  0
    8.9078    3.3862    0.0000 H   0  0
   11.1295   -1.9920    0.0000 H   0  0
   11.8902   -0.1059    0.0000 H   0  0
   11.4804    0.5792    0.0000 H   0  0
   11.5060   -1.6297    0.0000 H   0  0
   11.8998   -0.9353    0.0000 H   0  0
    8.9344    3.0279    0.0000 H   0  0
    8.0883    2.7977    0.0000 H   0  0
    8.3185    1.9517    0.0000 H   0  0
    8.3379   -0.9866    0.0000 H   0  0
    7.9281   -1.6717    0.0000 H   0  0
   10.6185   -3.2389    0.0000 H   0  0
   11.0123   -2.5445    0.0000 H   0  0
    8.9380   -0.0093    0.0000 H   0  0
    8.0902   -0.2330    0.0000 H   0  0
    8.3139   -1.0808    0.0000 H   0  0
    7.9180   -2.5445    0.0000 H   0  0
    8.3118   -3.2389    0.0000 H   0  0
    8.4473    4.6816    0.0000 H   0  0
    7.7125    4.2032    0.0000 H   0  0
    8.1910    3.4684    0.0000 H   0  0
   10.0027   -3.5127    0.0000 H   0  0
   11.1112    4.5649    0.0000 H   0  0
   11.4333    5.2940    0.0000 H   0  0
   11.3489    6.0741    0.0000 H   0  0
   10.8785    6.7176    0.0000 H   0  0
    8.7348    6.4858    0.0000 H   0  0
    8.4128    5.7567    0.0000 H   0  0
   10.3160    6.8855    0.0000 H   0  0
   10.3244    7.5804    0.0000 H   0  0
    9.6414    8.1302    0.0000 H   0  0
    9.0916    7.4471    0.0000 H   0  0
    8.5991   -4.0838    0.0000 H   0  0
    8.5991   -6.3238    0.0000 H   0  0
    7.1962   -6.5138    0.0000 H   0  0
    6.8671   -4.0838    0.0000 H   0  0
    6.3301   -5.3938    0.0000 H   0  0
    5.3905   -4.0961    0.0000 H   0  0
    5.7890   -4.7864    0.0000 H   0  0
    9.7942   -5.3938    0.0000 H   0  0
    7.1962   -7.5138    0.0000 H   0  0
   11.7341   -6.5138    0.0000 H   0  0
    5.1350   -6.3238    0.0000 H   0  0
    5.4641   -2.8938    0.0000 H   0  0
   12.6002   -5.3938    0.0000 H   0  0
   10.6603   -3.8938    0.0000 H   0  0
   12.0632   -4.0838    0.0000 H   0  0
    3.7320   -6.5138    0.0000 H   0  0
   11.7341   -7.5138    0.0000 H   0  0
    2.8660   -5.3938    0.0000 H   0  0
   10.9851   -2.6211    0.0000 H   0  0
   10.5866   -3.3114    0.0000 H   0  0
    4.6675   -3.7288    0.0000 H   0  0
    3.8705   -3.7288    0.0000 H   0  0
    3.4030   -4.0838    0.0000 H   0  0
   12.9292   -6.8238    0.0000 H   0  0
   13.4662   -4.5138    0.0000 H   0  0
    3.7320   -7.5138    0.0000 H   0  0
    2.0000   -5.8938    0.0000 H   0  0
   12.6002   -3.0138    0.0000 H   0  0
    2.5369   -3.5838    0.0000 H   0  0
  1 23  1  0
 31  1  1  6
  2 31  1  0
  2 42  1  0
 39  3  1  1
 45  3  1  1
  4 45  1  0
  4 48  1  0
 46  5  1  6
 51  5  1  6
 47  6  1  1
  6113  1  0
 49  7  1  6
 53  7  1  1
  8 51  1  0
  8 55  1  0
  9 50  1  0
  9116  1  0
 10 53  1  0
 10 60  1  0
 52 11  1  1
 11121  1  0
 54 12  1  6
 12128  1  0
 56 13  1  1
 13129  1  0
 57 14  1  6
 14130  1  0
 58 15  1  1
 15131  1  0
 16 59  1  0
 16132  1  0
 61 17  1  1
 17133  1  0
 18 19  1  0
 18 21  1  0
 18 26  1  0
 18 33  1  1
 19 20  1  0
 19 25  1  0
 19 62  1  6
 20 22  1  0
 20 30  1  0
 20 63  1  1
 21 23  1  0
 21 28  1  0
 21 64  1  6
 22 24  1  0
 22 27  1  0
 22 65  1  6
 23 25  1  0
 23 66  1  6
 24 29  1  0
 24 34  1  0
 24 36  1  1
 25 67  1  0
 25 68  1  0
 26 27  1  0
 26 69  1  0
 26 70  1  0
 27 71  1  0
 27 72  1  0
 28 31  1  0
 28 38  1  6
 28 73  1  0
 29 32  1  0
 29 35  1  0
 29 74  1  1
 30 32  1  0
 30 75  1  0
 30 76  1  0
 31 40  1  0
 32 77  1  0
 32 78  1  0
 33 79  1  0
 33 80  1  0
 33 81  1  0
 34 37  1  0
 34 82  1  0
 34 83  1  0
 35 39  1  0
 35 84  1  0
 35 85  1  0
 36 86  1  0
 36 87  1  0
 36 88  1  0
 37 39  1  0
 37 89  1  0
 37 90  1  0
 38 91  1  0
 38 92  1  0
 38 93  1  0
 39 94  1  0
 40 41  1  0
 40 95  1  0
 40 96  1  0
 41 43  1  0
 41 97  1  0
 41 98  1  0
 42 43  1  0
 42 99  1  0
 42100  1  0
 43 44  1  1
 43101  1  0
 44102  1  0
 44103  1  0
 44104  1  0
 45 46  1  0
 45105  1  0
 46 47  1  0
 46106  1  0
 47 49  1  0
 47107  1  0
 48 49  1  0
 48 50  1  1
 48108  1  0
 49109  1  0
 50110  1  0
 50111  1  0
 51 52  1  0
 51112  1  0
 52 54  1  0
 52114  1  0
 53 57  1  0
 53115  1  0
 54 56  1  0
 54117  1  0
 55 56  1  0
 55 59  1  6
 55118  1  0
 56119  1  0
 57 58  1  0
 57120  1  0
 58 61  1  0
 58122  1  0
 59123  1  0
 59124  1  0
 60 61  1  0
 60125  1  0
 60126  1  0
 61127  1  0
M  END
> <Name>
21575008

> <OBJECTID>
9223372582318964750

> <PUBCHEM_COMPOUND_CID>
21575008

> <PUBCHEM_COMPOUND_CANONICALIZED>
1

> <PUBCHEM_CACTVS_COMPLEXITY>
1530

> <PUBCHEM_CACTVS_HBOND_ACCEPTOR>
17

> <PUBCHEM_CACTVS_HBOND_DONOR>
9

> <PUBCHEM_CACTVS_ROTATABLE_BOND>
8

> <PUBCHEM_CACTVS_SUBSKEYS>
AAADcfB8PgAAAAAAAAAAAAAAAAAAAaIAAAA0aNEiAAASAGDAAAAAGgAACAAADxSwgAMCCAAABgAAAAAAAAAAAAAAAAAAAAAAAAAREAIAAAAiQAAFAAAHAAHA4PwPgAAAAAAAAADAAAYAACAAAYAADAAAAA==

> <PUBCHEM_IUPAC_OPENEYE_NAME>
(2S,3R,4S,5S,6R)-2-[(2R,3R,4S,5S,6R)-4-hydroxy-6-(hydroxymethyl)-2-[(1R,2S,4S,5'S,6R,7S,8R,9S,12S,13S,16S,18R)-5',7,9,13-tetramethylspiro[5-oxapentacyclo[10.8.0.02,9.04,8.013,18]icosane-6,2'-tetrahydropyran]-16-yl]oxy-5-[(2S,3R,4S,5S)-3,4,5-trihydroxytetrahydropyran-2-yl]oxy-tetrahydropyran-3-yl]oxy-6-(hydroxymethyl)tetrahydropyran-3,4,5-triol

> <PUBCHEM_IUPAC_CAS_NAME>
(2S,3R,4S,5S,6R)-2-[[(2R,3R,4S,5S,6R)-4-hydroxy-6-(hydroxymethyl)-2-[[(1R,2S,4S,5'S,6R,7S,8R,9S,12S,13S,16S,18R)-5',7,9,13-tetramethyl-16-spiro[5-oxapentacyclo[10.8.0.02,9.04,8.013,18]eicosane-6,2'-oxane]yl]oxy]-5-[[(2S,3R,4S,5S)-3,4,5-trihydroxy-2-oxanyl]oxy]-3-oxanyl]oxy]-6-(hydroxymethyl)oxane-3,4,5-triol

> <PUBCHEM_IUPAC_NAME_MARKUP>
(2<I>S</I>,3<I>R</I>,4<I>S</I>,5<I>S</I>,6<I>R</I>)-2-[(2<I>R</I>,3<I>R</I>,4<I>S</I>,5<I>S</I>,6<I>R</I>)-4-hydroxy-6-(hydroxymethyl)-2-[(1<I>R</I>,2<I>S</I>,4<I>S</I>,5&apos;<I>S</I>,6<I>R</I>,7<I>S</I>,8<I>R</I>,9<I>S</I>,12<I>S</I>,13<I>S</I>,16<I>S</I>,18<I>R</I>)-5&apos;,7,9,13-tetramethylspiro[5-oxapentacyclo[10.8.0.0<SUP>2,9</SUP>.0<SUP>4,8</SUP>.0<SUP>13,18</SUP>]icosane-6,2&apos;-oxane]-16-yl]oxy-5-[(2<I>S</I>,3<I>R</I>,4<I>S</I>,5<I>S</I>)-3,4,5-trihydroxyoxan-2-yl]oxyoxan-3-yl]oxy-6-(hydroxymethyl)oxane-3,4,5-triol

> <PUBCHEM_IUPAC_NAME>
(2S,3R,4S,5S,6R)-2-[(2R,3R,4S,5S,6R)-4-hydroxy-6-(hydroxymethyl)-2-[(1R,2S,4S,5'S,6R,7S,8R,9S,12S,13S,16S,18R)-5',7,9,13-tetramethylspiro[5-oxapentacyclo[10.8.0.02,9.04,8.013,18]icosane-6,2'-oxane]-16-yl]oxy-5-[(2S,3R,4S,5S)-3,4,5-trihydroxyoxan-2-yl]oxyoxan-3-yl]oxy-6-(hydroxymethyl)oxane-3,4,5-triol

> <PUBCHEM_IUPAC_SYSTEMATIC_NAME>
(2R,3S,4S,5R,6S)-2-(hydroxymethyl)-6-[(2R,3R,4S,5S,6R)-6-(hydroxymethyl)-4-oxidanyl-2-[(1R,2S,4S,5'S,6R,7S,8R,9S,12S,13S,16S,18R)-5',7,9,13-tetramethylspiro[5-oxapentacyclo[10.8.0.02,9.04,8.013,18]icosane-6,2'-oxane]-16-yl]oxy-5-[(2S,3R,4S,5S)-3,4,5-tris(oxidanyl)oxan-2-yl]oxy-oxan-3-yl]oxy-oxane-3,4,5-triol

> <PUBCHEM_IUPAC_TRADITIONAL_NAME>
(2S,3R,4S,5S,6R)-2-[(2R,3R,4S,5S,6R)-4-hydroxy-6-methylol-2-[(1R,2S,4S,5'S,6R,7S,8R,9S,12S,13S,16S,18R)-5',7,9,13-tetramethylspiro[5-oxapentacyclo[10.8.0.02,9.04,8.013,18]eicosane-6,2'-tetrahydropyran]-16-yl]oxy-5-[(2S,3R,4S,5S)-3,4,5-trihydroxytetrahydropyran-2-yl]oxy-tetrahydropyran-3-yl]oxy-6-methylol-tetrahydropyran-3,4,5-triol

> <PUBCHEM_IUPAC_INCHI>
InChI=1S/C44H72O17/c1-19-7-12-44(55-17-19)20(2)30-27(61-44)14-25-23-6-5-21-13-22(8-10-42(21,3)24(23)9-11-43(25,30)4)56-41-38(60-40-35(52)33(50)32(49)28(15-45)57-40)36(53)37(29(16-46)58-41)59-39-34(51)31(48)26(47)18-54-39/h19-41,45-53H,5-18H2,1-4H3/t19-,20-,21+,22-,23+,24-,25-,26-,27-,28+,29+,30-,31-,32+,33-,34+,35+,36-,37+,38+,39-,40-,41+,42-,43-,44+/m0/s1

> <PUBCHEM_IUPAC_INCHIKEY>
KCJCMMKXYAIXFR-IFBGARPXSA-N

> <PUBCHEM_XLOGP3_AA>
1.2

> <PUBCHEM_EXACT_MASS>
872.47695082

> <PUBCHEM_MOLECULAR_FORMULA>
C44H72O17

> <PUBCHEM_MOLECULAR_WEIGHT>
873

> <PUBCHEM_OPENEYE_CAN_SMILES>
CC1CCC2(C(C3C(O2)CC4C3(CCC5C4CCC6C5(CCC(C6)OC7C(C(C(C(O7)CO)OC8C(C(C(CO8)O)O)O)O)OC9C(C(C(C(O9)CO)O)O)O)C)C)C)OC1

> <PUBCHEM_OPENEYE_ISO_SMILES>
C[C@H]1CC[C@@]2([C@H]([C@H]3[C@@H](O2)C[C@@H]4[C@@]3(CC[C@H]5[C@H]4CC[C@H]6[C@@]5(CC[C@@H](C6)O[C@H]7[C@@H]([C@H]([C@@H]([C@H](O7)CO)O[C@H]8[C@@H]([C@H]([C@H](CO8)O)O)O)O)O[C@H]9[C@@H]([C@H]([C@@H]([C@H](O9)CO)O)O)O)C)C)C)OC1

> <PUBCHEM_CACTVS_TPSA>
256

> <PUBCHEM_MONOISOTOPIC_WEIGHT>
872.47695082

> <PUBCHEM_TOTAL_CHARGE>
0

> <PUBCHEM_HEAVY_ATOM_COUNT>
61

> <PUBCHEM_ATOM_DEF_STEREO_COUNT>
26

> <PUBCHEM_ATOM_UDEF_STEREO_COUNT>
0

> <PUBCHEM_BOND_DEF_STEREO_COUNT>
0

> <PUBCHEM_BOND_UDEF_STEREO_COUNT>
0

> <PUBCHEM_ISOTOPIC_ATOM_COUNT>
0

> <PUBCHEM_COMPONENT_COUNT>
1

> <PUBCHEM_CACTVS_TAUTO_COUNT>
-1

> <PUBCHEM_COORDINATE_TYPE>
1
5
255

> <PUBCHEM_BONDANNOTATIONS>
31  1  6
52  11  5
54  12  6
56  13  5
57  14  6
58  15  5
61  17  5
18  33  5
19  62  6
20  63  5
21  64  6
22  65  6
23  66  6
24  36  5
28  38  6
29  74  5
39  3  5
45  3  5
43  44  5
48  50  5
46  5  6
51  5  6
55  59  6
47  6  5
49  7  6
53  7  5

$$$$
21593623
  SciTegic09112316442D

116122  0  0  1  0            999 V2000
    8.5991   -0.5725    0.0000 O   0  0
   11.8999    6.2775    0.0000 O   0  0
   10.2098    6.6564    0.0000 O   0  0
    6.8671   -0.5725    0.0000 O   0  0
    8.5991   -2.5725    0.0000 O   0  0
    6.8671   -3.5725    0.0000 O   0  0
    5.1350   -2.5725    0.0000 O   0  0
    9.4651   -1.0725    0.0000 O   0  0
    5.1350    0.4275    0.0000 O   0  0
    5.1350   -3.5725    0.0000 O   0  0
   10.3312   -3.5725    0.0000 O   0  0
    6.8671   -5.5725    0.0000 O   0  0
   12.0632   -2.5725    0.0000 O   0  0
   12.0632   -0.5725    0.0000 O   0  0
    5.1350   -6.5725    0.0000 O   0  0
    3.4030   -5.5725    0.0000 O   0  0
   11.1972    0.9275    0.0000 O   0  0
    2.5369   -4.0725    0.0000 O   0  0
    8.5991    2.6745    0.0000 C   0  0  2  0  0  0
    9.5740    2.4520    0.0000 C   0  0  2  0  0  0
   10.2942    3.2045    0.0000 C   0  0  1  0  0  0
    9.9949    4.2022    0.0000 C   0  0  2  0  0  0
    8.9651    1.5510    0.0000 C   0  0
    8.5991    0.4275    0.0000 C   0  0  2  0  0  0
    8.2768    3.6650    0.0000 C   0  0
   10.0079    1.5510    0.0000 C   0  0
    7.8173    2.0510    0.0000 C   0  0
    8.9794    4.4340    0.0000 C   0  0
   10.7267    5.0033    0.0000 C   0  0  2  0  0  0
   11.3461    2.9387    0.0000 C   0  0
    9.5740    0.6501    0.0000 C   0  0
    7.8173    1.0510    0.0000 C   0  0
   10.8919    2.4028    0.0000 C   0  0
   11.7845    4.7618    0.0000 C   0  0
   12.0963    3.7226    0.0000 C   0  0
    9.9910    5.6806    0.0000 C   0  0
   10.9455    5.9790    0.0000 C   0  0
    6.9163    0.6171    0.0000 C   0  0
    7.7331   -1.0725    0.0000 C   0  0  2  0  0  0
    7.7331   -2.0725    0.0000 C   0  0  1  0  0  0
    6.8671   -2.5725    0.0000 C   0  0  2  0  0  0
    6.0010   -1.0725    0.0000 C   0  0  1  0  0  0
    6.0010   -2.0725    0.0000 C   0  0  1  0  0  0
    5.1350   -0.5725    0.0000 C   0  0
    9.4651   -2.0725    0.0000 C   0  0  2  0  0  0
    6.0010   -4.0725    0.0000 C   0  0  2  0  0  0
   10.3312   -2.5725    0.0000 C   0  0  1  0  0  0
    6.0010   -5.0725    0.0000 C   0  0  1  0  0  0
   11.1972   -2.0725    0.0000 C   0  0  2  0  0  0
   10.3312   -0.5725    0.0000 C   0  0  1  0  0  0
   11.1972   -1.0725    0.0000 C   0  0  1  0  0  0
    5.1350   -5.5725    0.0000 C   0  0  2  0  0  0
    4.2690   -4.0725    0.0000 C   0  0  1  0  0  0
    4.2690   -5.0725    0.0000 C   0  0  1  0  0  0
   10.3312    0.4275    0.0000 C   0  0
    3.4030   -3.5725    0.0000 C   0  0
   10.4027    2.2628    0.0000 H   0  0
    9.7412    5.0135    0.0000 H   0  0
    9.4666    1.1865    0.0000 H   0  0
    9.4666    1.9156    0.0000 H   0  0
    7.8974    4.1554    0.0000 H   0  0
    7.7287    3.3751    0.0000 H   0  0
   10.4927    1.1645    0.0000 H   0  0
   10.4927    1.9376    0.0000 H   0  0
    7.5483    2.6096    0.0000 H   0  0
    7.2128    1.9131    0.0000 H   0  0
    9.2187    5.0060    0.0000 H   0  0
    8.4568    4.7677    0.0000 H   0  0
   11.0936    2.3725    0.0000 H   0  0
   11.8608    2.5930    0.0000 H   0  0
    9.5740    0.0301    0.0000 H   0  0
   10.1785    0.5121    0.0000 H   0  0
   10.3948    2.0322    0.0000 H   0  0
   11.2624    1.9057    0.0000 H   0  0
   11.3890    2.7733    0.0000 H   0  0
   12.4001    4.8358    0.0000 H   0  0
   11.8170    5.3810    0.0000 H   0  0
   12.4643    3.2236    0.0000 H   0  0
   12.6509    3.9998    0.0000 H   0  0
   10.4110    6.1367    0.0000 H   0  0
    9.5349    6.1006    0.0000 H   0  0
    9.5711    5.2245    0.0000 H   0  0
    6.4040    0.9664    0.0000 H   0  0
    6.8700   -0.0011    0.0000 H   0  0
    7.7331   -0.4525    0.0000 H   0  0
    7.7331   -2.6925    0.0000 H   0  0
   12.0355    6.8825    0.0000 H   0  0
    6.3301   -2.8825    0.0000 H   0  0
    6.0010   -0.4525    0.0000 H   0  0
    5.4641   -1.7625    0.0000 H   0  0
    4.5244   -0.4648    0.0000 H   0  0
    4.9230   -1.1551    0.0000 H   0  0
    9.4651   -2.6925    0.0000 H   0  0
    4.5981   -2.2625    0.0000 H   0  0
    6.5380   -4.3825    0.0000 H   0  0
   10.8681   -2.8825    0.0000 H   0  0
    6.0010   -5.6925    0.0000 H   0  0
   11.1972   -2.6925    0.0000 H   0  0
    4.5981    0.7375    0.0000 H   0  0
    9.7942   -0.2625    0.0000 H   0  0
   11.7341   -1.3825    0.0000 H   0  0
    4.5981   -5.8825    0.0000 H   0  0
    4.2690   -3.4525    0.0000 H   0  0
    4.2690   -5.6925    0.0000 H   0  0
   10.8681   -3.8825    0.0000 H   0  0
   10.1191    1.0102    0.0000 H   0  0
    9.7206    0.3199    0.0000 H   0  0
    7.4040   -5.2625    0.0000 H   0  0
   12.6002   -2.2625    0.0000 H   0  0
    3.8015   -3.0975    0.0000 H   0  0
    3.0044   -3.0975    0.0000 H   0  0
   12.0632    0.0475    0.0000 H   0  0
    4.5981   -6.8825    0.0000 H   0  0
    3.4030   -6.1925    0.0000 H   0  0
   11.1972    1.5475    0.0000 H   0  0
    2.0000   -3.7625    0.0000 H   0  0
 24  1  1  6
 39  1  1  1
  2 37  1  0
  2 87  1  0
  3 37  2  0
  4 39  1  0
  4 42  1  0
 40  5  1  6
 45  5  1  6
 41  6  1  1
 46  6  1  1
 43  7  1  6
  7 94  1  0
  8 45  1  0
  8 50  1  0
  9 44  1  0
  9 99  1  0
 10 46  1  0
 10 53  1  0
 47 11  1  1
 11105  1  0
 48 12  1  6
 12108  1  0
 49 13  1  6
 13109  1  0
 51 14  1  1
 14112  1  0
 52 15  1  1
 15113  1  0
 54 16  1  6
 16114  1  0
 17 55  1  0
 17115  1  0
 18 56  1  0
 18116  1  0
 19 20  1  0
 19 23  1  0
 19 25  1  6
 19 27  1  0
 20 21  1  0
 20 26  1  0
 20 57  1  1
 21 22  1  0
 21 30  1  0
 21 33  1  6
 22 28  1  0
 22 29  1  0
 22 58  1  1
 23 24  1  0
 23 59  1  0
 23 60  1  0
 24 31  1  0
 24 32  1  0
 25 28  1  0
 25 61  1  0
 25 62  1  0
 26 31  1  0
 26 63  1  0
 26 64  1  0
 27 32  1  0
 27 65  1  0
 27 66  1  0
 28 67  1  0
 28 68  1  0
 29 34  1  0
 29 36  1  1
 29 37  1  0
 30 35  1  0
 30 69  1  0
 30 70  1  0
 31 71  1  0
 31 72  1  0
 32 38  2  0
 33 73  1  0
 33 74  1  0
 33 75  1  0
 34 35  1  0
 34 76  1  0
 34 77  1  0
 35 78  1  0
 35 79  1  0
 36 80  1  0
 36 81  1  0
 36 82  1  0
 38 83  1  0
 38 84  1  0
 39 40  1  0
 39 85  1  0
 40 41  1  0
 40 86  1  0
 41 43  1  0
 41 88  1  0
 42 43  1  0
 42 44  1  1
 42 89  1  0
 43 90  1  0
 44 91  1  0
 44 92  1  0
 45 47  1  0
 45 93  1  0
 46 48  1  0
 46 95  1  0
 47 49  1  0
 47 96  1  0
 48 52  1  0
 48 97  1  0
 49 51  1  0
 49 98  1  0
 50 51  1  0
 50 55  1  6
 50100  1  0
 51101  1  0
 52 54  1  0
 52102  1  0
 53 54  1  0
 53 56  1  1
 53103  1  0
 54104  1  0
 55106  1  0
 55107  1  0
 56110  1  0
 56111  1  0
M  END
> <Name>
21593623

> <OBJECTID>
9223372586613932046

> <PUBCHEM_COMPOUND_CID>
21593623

> <PUBCHEM_COMPOUND_CANONICALIZED>
1

> <PUBCHEM_CACTVS_COMPLEXITY>
1450

> <PUBCHEM_CACTVS_HBOND_ACCEPTOR>
18

> <PUBCHEM_CACTVS_HBOND_DONOR>
11

> <PUBCHEM_CACTVS_ROTATABLE_BOND>
10

> <PUBCHEM_CACTVS_SUBSKEYS>
AAADcfB8PgAAAAAAAAAAAAAAAAAAAYAAAAA0aNECBgAAAADAAAAAGgAACAAAD1SwgAMCCAAABgCIAgDSCAAAAAAgAAAAAAEAAAgRFBIAIQAiQAAFgAAHIAHI6PyPgAAAAAAAAADAAAYAACAAAYAAAAAAAA==

> <PUBCHEM_IUPAC_OPENEYE_NAME>
(1R,4S,5R,9S,10R,13S)-13-[(2S,3R,4S,5R,6R)-5-hydroxy-6-(hydroxymethyl)-3,4-bis[[(2S,3R,4S,5S,6R)-3,4,5-trihydroxy-6-(hydroxymethyl)tetrahydropyran-2-yl]oxy]tetrahydropyran-2-yl]oxy-5,9-dimethyl-14-methylene-tetracyclo[11.2.1.01,10.04,9]hexadecane-5-carboxylic acid

> <PUBCHEM_IUPAC_CAS_NAME>
(1R,4S,5R,9S,10R,13S)-13-[[(2S,3R,4S,5R,6R)-5-hydroxy-6-(hydroxymethyl)-3,4-bis[[(2S,3R,4S,5S,6R)-3,4,5-trihydroxy-6-(hydroxymethyl)-2-oxanyl]oxy]-2-oxanyl]oxy]-5,9-dimethyl-14-methylene-5-tetracyclo[11.2.1.01,10.04,9]hexadecanecarboxylic acid

> <PUBCHEM_IUPAC_NAME_MARKUP>
(1<I>R</I>,4<I>S</I>,5<I>R</I>,9<I>S</I>,10<I>R</I>,13<I>S</I>)-13-[(2<I>S</I>,3<I>R</I>,4<I>S</I>,5<I>R</I>,6<I>R</I>)-5-hydroxy-6-(hydroxymethyl)-3,4-bis[[(2<I>S</I>,3<I>R</I>,4<I>S</I>,5<I>S</I>,6<I>R</I>)-3,4,5-trihydroxy-6-(hydroxymethyl)oxan-2-yl]oxy]oxan-2-yl]oxy-5,9-dimethyl-14-methylidenetetracyclo[11.2.1.0<SUP>1,10</SUP>.0<SUP>4,9</SUP>]hexadecane-5-carboxylic acid

> <PUBCHEM_IUPAC_NAME>
(1R,4S,5R,9S,10R,13S)-13-[(2S,3R,4S,5R,6R)-5-hydroxy-6-(hydroxymethyl)-3,4-bis[[(2S,3R,4S,5S,6R)-3,4,5-trihydroxy-6-(hydroxymethyl)oxan-2-yl]oxy]oxan-2-yl]oxy-5,9-dimethyl-14-methylidenetetracyclo[11.2.1.01,10.04,9]hexadecane-5-carboxylic acid

> <PUBCHEM_IUPAC_SYSTEMATIC_NAME>
(1R,4S,5R,9S,10R,13S)-13-[(2S,3R,4S,5R,6R)-6-(hydroxymethyl)-3,4-bis[[(2S,3R,4S,5S,6R)-6-(hydroxymethyl)-3,4,5-tris(oxidanyl)oxan-2-yl]oxy]-5-oxidanyl-oxan-2-yl]oxy-5,9-dimethyl-14-methylidene-tetracyclo[11.2.1.01,10.04,9]hexadecane-5-carboxylic acid

> <PUBCHEM_IUPAC_TRADITIONAL_NAME>
(1R,4S,5R,9S,10R,13S)-13-[(2S,3R,4S,5R,6R)-5-hydroxy-6-methylol-3,4-bis[[(2S,3R,4S,5S,6R)-3,4,5-trihydroxy-6-methylol-tetrahydropyran-2-yl]oxy]tetrahydropyran-2-yl]oxy-5,9-dimethyl-14-methylene-tetracyclo[11.2.1.01,10.04,9]hexadecane-5-carboxylic acid

> <PUBCHEM_IUPAC_INCHI>
InChI=1S/C38H60O18/c1-16-11-37-9-5-20-35(2,7-4-8-36(20,3)34(49)50)21(37)6-10-38(16,15-37)56-33-30(55-32-28(48)26(46)23(43)18(13-40)52-32)29(24(44)19(14-41)53-33)54-31-27(47)25(45)22(42)17(12-39)51-31/h17-33,39-48H,1,4-15H2,2-3H3,(H,49,50)/t17-,18-,19-,20+,21+,22-,23-,24-,25+,26+,27-,28-,29+,30-,31+,32+,33+,35-,36-,37-,38+/m1/s1

> <PUBCHEM_IUPAC_INCHIKEY>
DRSKVOAJKLUMCL-MMUIXFKXSA-N

> <PUBCHEM_XLOGP3_AA>
-1

> <PUBCHEM_EXACT_MASS>
804.37796506

> <PUBCHEM_MOLECULAR_FORMULA>
C38H60O18

> <PUBCHEM_MOLECULAR_WEIGHT>
804.9

> <PUBCHEM_OPENEYE_CAN_SMILES>
CC12CCCC(C1CCC34C2CCC(C3)(C(=C)C4)OC5C(C(C(C(O5)CO)O)OC6C(C(C(C(O6)CO)O)O)O)OC7C(C(C(C(O7)CO)O)O)O)(C)C(=O)O

> <PUBCHEM_OPENEYE_ISO_SMILES>
C[C@@]12CCC[C@@]([C@H]1CC[C@]34[C@H]2CC[C@](C3)(C(=C)C4)O[C@H]5[C@@H]([C@H]([C@@H]([C@H](O5)CO)O)O[C@H]6[C@@H]([C@H]([C@@H]([C@H](O6)CO)O)O)O)O[C@H]7[C@@H]([C@H]([C@@H]([C@H](O7)CO)O)O)O)(C)C(=O)O

> <PUBCHEM_CACTVS_TPSA>
295

> <PUBCHEM_MONOISOTOPIC_WEIGHT>
804.37796506

> <PUBCHEM_TOTAL_CHARGE>
0

> <PUBCHEM_HEAVY_ATOM_COUNT>
56

> <PUBCHEM_ATOM_DEF_STEREO_COUNT>
21

> <PUBCHEM_ATOM_UDEF_STEREO_COUNT>
0

> <PUBCHEM_BOND_DEF_STEREO_COUNT>
0

> <PUBCHEM_BOND_UDEF_STEREO_COUNT>
0

> <PUBCHEM_ISOTOPIC_ATOM_COUNT>
0

> <PUBCHEM_COMPONENT_COUNT>
1

> <PUBCHEM_CACTVS_TAUTO_COUNT>
1

> <PUBCHEM_COORDINATE_TYPE>
1
5
255

> <PUBCHEM_BONDANNOTATIONS>
24  1  6
39  1  5
47  11  5
48  12  6
49  13  6
51  14  5
52  15  5
54  16  6
19  25  6
20  57  5
21  33  6
22  58  5
29  36  5
42  44  5
40  5  6
45  5  6
50  55  6
53  56  5
41  6  5
46  6  5
43  7  6

$$$$
21594782
  SciTegic09112316443D

 56 56  0  0  1  0            999 V2000
   -1.1683    0.0562    2.1871 O   0  0
    0.9073    1.9128    1.3578 O   0  0
    1.6341   -2.4645   -0.2118 O   0  0
   -1.0104    1.5893   -0.9181 O   0  0
    3.9565   -0.8693    0.5649 O   0  0
   -0.4690   -1.3371    0.2575 C   0  0  1  0  0  0
   -0.6444    0.0667    0.8756 C   0  0  2  0  0  0
    0.7470    0.6283    0.9048 C   0  0
    1.0367   -1.4599    0.1468 C   0  0
   -1.0492   -2.4908    1.0619 C   0  0
    1.7122   -0.2019    0.5038 C   0  0
   -1.4991    0.9585    0.0184 C   0  0
    3.1422    0.0568    0.4467 C   0  0
   -2.9721    1.0241    0.3903 C   0  0
    3.5858    1.4971    0.1947 C   0  0
   -0.8442   -3.8024    0.3610 C   0  0
    4.8908    1.6164   -0.6079 C   0  0
   -1.6342   -4.3737   -0.5678 C   0  0
   -3.7451    1.8598   -0.5837 C   0  0
    5.2787    3.0807   -0.8288 C   0  0
    4.7426    0.9111   -1.9574 C   0  0
   -2.8894   -3.6833   -1.0308 C   0  0
   -1.3705   -5.6948   -1.2331 C   0  0
   -4.0117    3.1771   -0.4988 C   0  0
   -3.5307    3.9810    0.6792 C   0  0
   -4.7956    3.9616   -1.5123 C   0  0
   -0.8546   -1.3464   -0.7715 H   0  0
   -2.1138   -2.3348    1.2651 H   0  0
   -0.5633   -2.5597    2.0442 H   0  0
   -1.9997   -0.4445    2.2011 H   0  0
   -3.3795    0.0067    0.3662 H   0  0
   -3.0888    1.3992    1.4102 H   0  0
    2.8011    2.0290   -0.3563 H   0  0
    3.7055    1.9806    1.1713 H   0  0
    0.0472   -4.3512    0.6620 H   0  0
    5.6998    1.1261   -0.0522 H   0  0
    0.0424    2.2333    1.6658 H   0  0
   -4.1144    1.3237   -1.4567 H   0  0
    6.2238    3.1549   -1.3769 H   0  0
    4.5114    3.6140   -1.4003 H   0  0
    5.4057    3.5944    0.1298 H   0  0
    4.5754   -0.1641   -1.8456 H   0  0
    5.6527    1.0322   -2.5553 H   0  0
    3.9080    1.3258   -2.5334 H   0  0
   -3.0223   -2.6700   -0.6463 H   0  0
   -3.7667   -4.2684   -0.7349 H   0  0
   -2.8870   -3.6033   -2.1236 H   0  0
   -2.1950   -6.3891   -1.0422 H   0  0
   -1.2648   -5.5640   -2.3147 H   0  0
   -0.4504   -6.1569   -0.8604 H   0  0
   -4.3728    4.2261    1.3346 H   0  0
   -3.0871    4.9209    0.3312 H   0  0
   -2.7614    3.4888    1.2783 H   0  0
   -5.6767    4.4138   -1.0460 H   0  0
   -4.1779    4.7572   -1.9409 H   0  0
   -5.1410    3.3265   -2.3347 H   0  0
  1  7  1  0
  1 30  1  0
  2  8  1  0
  2 37  1  0
  3  9  2  0
  4 12  2  0
  5 13  2  0
  6  7  1  0
  6  9  1  0
  6 10  1  0
  6 27  1  0
  7  8  1  0
  7 12  1  0
  8 11  2  0
  9 11  1  0
 10 16  1  0
 10 28  1  0
 10 29  1  0
 11 13  1  0
 12 14  1  0
 13 15  1  0
 14 19  1  0
 14 31  1  0
 14 32  1  0
 15 17  1  0
 15 33  1  0
 15 34  1  0
 16 18  2  0
 16 35  1  0
 17 20  1  0
 17 21  1  0
 17 36  1  0
 18 22  1  0
 18 23  1  0
 19 24  2  0
 19 38  1  0
 20 39  1  0
 20 40  1  0
 20 41  1  0
 21 42  1  0
 21 43  1  0
 21 44  1  0
 22 45  1  0
 22 46  1  0
 22 47  1  0
 23 48  1  0
 23 49  1  0
 23 50  1  0
 24 25  1  0
 24 26  1  0
 25 51  1  0
 25 52  1  0
 25 53  1  0
 26 54  1  0
 26 55  1  0
 26 56  1  0
M  END
> <Name>
21594782

> <OBJECTID>
9223372590908899342

> <PUBCHEM_COMPOUND_CID>
21594782

> <PUBCHEM_CONFORMER_RMSD>
1

> <PUBCHEM_CONFORMER_DIVERSEORDER>
1
160
170
55
76
117
8
45
114
158
131
28
122
86
168
157
129
37
143
137
84
133
100
102
14
167
20
97
75
108
54
89
36
73
39
146
42
109
138
63
120
159
126
38
149
62
139
57
64
58
144
156
70
152
164
128
47
111
107
140
154
87
11
171
80
161
61
92
163
46
67
136
91
23
127
118
124
148
172
103
151
104
50
169
32
34
19
88
135
33
166
74
115
141
41
13
7
3
134
125
52
165
17
113
150
65
82
71
77
35
153
95
98
142
105
112
78
9
30
90
16
121
145
155
26
116
93
43
51
69
119
59
60
15
130
162
79
12
147
40
31
18
94
110
68
123
53
106
10
5
44
48
25
22
21
96
81
2
49
56
66
132
99
27
72
24
29
83
85
101
4
6

> <PUBCHEM_MMFF94_PARTIAL_CHARGES>
27
1 -0.68
10 0.14
11 0.03
12 0.45
13 0.49
14 0.2
15 0.06
16 -0.29
18 -0.28
19 -0.29
2 -0.53
22 0.14
23 0.14
24 -0.28
25 0.14
26 0.14
3 -0.57
30 0.4
35 0.15
37 0.45
38 0.15
4 -0.57
5 -0.57
6 0.06
7 0.48
8 -0.06
9 0.49

> <PUBCHEM_EFFECTIVE_ROTOR_COUNT>
8.4

> <PUBCHEM_PHARMACOPHORE_FEATURES>
10
1 1 acceptor
1 1 donor
1 2 donor
1 3 acceptor
1 4 acceptor
1 5 acceptor
3 17 20 21 hydrophobe
3 18 22 23 hydrophobe
3 24 25 26 hydrophobe
5 6 7 8 9 11 rings

> <PUBCHEM_HEAVY_ATOM_COUNT>
26

> <PUBCHEM_ATOM_DEF_STEREO_COUNT>
2

> <PUBCHEM_ATOM_UDEF_STEREO_COUNT>
0

> <PUBCHEM_BOND_DEF_STEREO_COUNT>
0

> <PUBCHEM_BOND_UDEF_STEREO_COUNT>
0

> <PUBCHEM_ISOTOPIC_ATOM_COUNT>
0

> <PUBCHEM_COMPONENT_COUNT>
1

> <PUBCHEM_CACTVS_TAUTO_COUNT>
36

> <PUBCHEM_CONFORMER_ID>
1498290

> <PUBCHEM_MMFF94_ENERGY>
39.7533

> <PUBCHEM_FEATURE_SELFOVERLAP>
50.75

> <PUBCHEM_SHAPE_FINGERPRINT>
11386260 185 17038648181808938269
11796584 16 13038620678832558644
12788726 201 18190448561936828275
13540713 5 18041547140459239874
14508225 48 17692530430778864983
14556957 393 17611198439181348932
14790565 3 18338238141816319417
14955137 171 17468773230663773331
15081414 286 17041479986426030323
15198563 99 18050290559374854253
15664445 248 16825875673177609748
15775530 1 17841415235697561081
15878777 1 10969672887499143219
16087824 20 18265897038116018491
16988056 13 17258470758600575415
17357779 13 17840867700540260398
17539 30 18195805403993435335
1813 80 17549281662224383382
21641784 216 17759820516655144772
2255824 54 17907009582749511259
22620623 9 18197229241813636478
22907989 373 18193271021206699686
23419403 2 13534945815325602370
23559900 14 17976819787630932066
23929065 36 18052512642468366064
266924 78 17766868051339976025
3057174 1 18267864982580561119
3388396 114 17035310596840115412
376196 1 17897444999998644161
394222 165 18042682797682680952
4017518 198 17984411950704727366
46194498 28 17540529120624127373
474 4 18118402847836716401

> <PUBCHEM_SHAPE_MULTIPOLES>
505.72
9.1
7.17
1.42
9.7
6.48
0.07
-11.83
4.36
-10.73
3.06
0.01
-0.19
-0.58

> <PUBCHEM_SHAPE_SELFOVERLAP>
1030.524

> <PUBCHEM_SHAPE_VOLUME>
293.7

> <PUBCHEM_COORDINATE_TYPE>
2
5
10

$$$$
22890058
  SciTegic09112316443D

 29 30  0  0  1  0            999 V2000
    2.6764    1.1512   -1.2467 O   0  0
    0.1283   -2.3817   -0.0511 O   0  0
    2.8956   -1.4892   -0.0009 O   0  0
   -1.5369    0.1237    0.0156 N   0  0
   -0.1823    0.0234    0.0236 C   0  0
   -2.4457   -1.0166   -0.0283 C   0  0
   -2.2681    1.3855    0.0501 C   0  0
    0.6432    1.2841    0.0875 C   0  0
    2.1016    0.8109    0.0037 C   0  0  1  0  0  0
   -3.8109   -0.4136    0.2881 C   0  0
   -3.7034    0.9903   -0.2836 C   0  0
    0.5563   -1.0927   -0.0057 C   0  0
    1.9697   -0.6922    0.0108 C   0  0
    2.9764    1.3169    1.1371 C   0  0
    0.4031    1.9566   -0.7435 H   0  0
    0.4454    1.8060    1.0312 H   0  0
   -2.2039   -1.7838    0.7144 H   0  0
   -2.4433   -1.4629   -1.0292 H   0  0
   -1.8997    2.1132   -0.6800 H   0  0
   -2.2126    1.8229    1.0535 H   0  0
   -3.9593   -0.3640    1.3737 H   0  0
   -4.6339   -0.9888   -0.1448 H   0  0
   -3.8437    0.9622   -1.3711 H   0  0
   -4.4379    1.6809    0.1398 H   0  0
    3.0317    2.4109    1.1262 H   0  0
    2.6007    0.9944    2.1138 H   0  0
    4.0032    0.9482    1.0322 H   0  0
    2.6461    2.1193   -1.3344 H   0  0
    0.9197   -2.9472   -0.0664 H   0  0
  1  9  1  0
  1 28  1  0
  2 12  1  0
  2 29  1  0
  3 13  2  0
  4  5  1  0
  4  6  1  0
  4  7  1  0
  5  8  1  0
  5 12  2  0
  6 10  1  0
  6 17  1  0
  6 18  1  0
  7 11  1  0
  7 19  1  0
  7 20  1  0
  8  9  1  0
  8 15  1  0
  8 16  1  0
  9 13  1  0
  9 14  1  0
 10 11  1  0
 10 21  1  0
 10 22  1  0
 11 23  1  0
 11 24  1  0
 12 13  1  0
 14 25  1  0
 14 26  1  0
 14 27  1  0
M  END
> <Name>
22890058

> <OBJECTID>
9223372595203866638

> <PUBCHEM_COMPOUND_CID>
22890058

> <PUBCHEM_CONFORMER_RMSD>
0.6

> <PUBCHEM_CONFORMER_DIVERSEORDER>
1
4
2
3

> <PUBCHEM_MMFF94_PARTIAL_CHARGES>
13
1 -0.68
12 0.09
13 0.49
2 -0.53
28 0.4
29 0.45
3 -0.57
4 -0.84
5 -0.04
6 0.37
7 0.37
8 0.14
9 0.34

> <PUBCHEM_EFFECTIVE_ROTOR_COUNT>
2.4

> <PUBCHEM_PHARMACOPHORE_FEATURES>
7
1 1 acceptor
1 1 donor
1 2 donor
1 3 acceptor
1 4 cation
5 4 6 7 10 11 rings
5 5 8 9 12 13 rings

> <PUBCHEM_HEAVY_ATOM_COUNT>
14

> <PUBCHEM_ATOM_DEF_STEREO_COUNT>
0

> <PUBCHEM_ATOM_UDEF_STEREO_COUNT>
1

> <PUBCHEM_BOND_DEF_STEREO_COUNT>
0

> <PUBCHEM_BOND_UDEF_STEREO_COUNT>
0

> <PUBCHEM_ISOTOPIC_ATOM_COUNT>
0

> <PUBCHEM_COMPONENT_COUNT>
1

> <PUBCHEM_CACTVS_TAUTO_COUNT>
5

> <PUBCHEM_CONFORMER_ID>
015D464A00000001

> <PUBCHEM_MMFF94_ENERGY>
26.9408

> <PUBCHEM_FEATURE_SELFOVERLAP>
35.522

> <PUBCHEM_SHAPE_FINGERPRINT>
10608611 8 18410006603224751745
10980938 120 18411700984606870827
11132069 177 18334851732133600281
11471102 20 18411413982445223621
12932764 1 18059857298321025261
13296908 3 18260552212464353267
13380535 76 18410289258890116579
13922767 16 18341885247744334666
14144814 61 18413389830557393425
14325111 11 18410573994005233785
14415576 193 18334860476618423893
14897335 6 18341603854171581327
15219456 202 18409445869463567937
15442244 35 17907860604759868497
15536298 74 18343862208374398642
15775835 57 18272933859896268813
16945 1 18193840572371867110
18186145 218 17989214762699710425
200 152 18131056122812968341
20201158 50 18337953364288754851
20645477 70 18270957947676263615
21040471 1 18338799030458926728
21501502 16 18409169879144198513
2255824 54 18113622257410243442
22854114 111 18413387635612807801
2334 1 18410575106169576907
23402539 116 18129931390668075884
23402655 69 18342166731823007837
23463225 33 18335419028219287771
2748010 2 18410294704945298359
3248919 1 17895191142642045945
5104073 3 18410856543092911121
528886 8 18410570690937954497
53812653 166 18200869694548049760
57096353 35 18339922722831688109
581208 293 18410006663079636565
7364860 26 18200028430666445950
81228 2 17621033596045194843
8809292 202 18260556593294481443

> <PUBCHEM_SHAPE_MULTIPOLES>
265.52
6.02
1.86
0.79
3.15
0.57
-0.02
-1.21
0.23
-0.51
0.03
-0.45
-0.23
0.22

> <PUBCHEM_SHAPE_SELFOVERLAP>
560.024

> <PUBCHEM_SHAPE_VOLUME>
152.8

> <PUBCHEM_COORDINATE_TYPE>
2
5
10

$$$$
23250007
  SciTegic09112316443D

 51 52  0  0  0  0            999 V2000
    5.8365    2.5948    0.8166 O   0  0
    0.7238    0.9701   -0.5199 O   0  0
    4.2895   -1.4740    1.5342 O   0  0
    0.4760   -3.7967   -0.1007 O   0  0
   -0.9075   -1.9905   -2.0446 O   0  0
   -7.4277    2.3068    1.1573 O   0  0
    4.9575    2.7168   -0.3036 C   0  0
    4.1758    1.3959   -0.4537 C   0  0
    3.2635    1.0602    0.7345 C   0  0
    2.5144   -0.2301    0.5085 C   0  0
    4.0371    3.9168   -0.0695 C   0  0
    5.8149    2.9512   -1.5518 C   0  0
    1.2666   -0.2147   -0.1148 C   0  0
    3.0718   -1.4394    0.9236 C   0  0
    0.5763   -1.4088   -0.3229 C   0  0
    2.3813   -2.6335    0.7155 C   0  0
    1.1336   -2.6182    0.0923 C   0  0
   -0.7290   -1.3944   -0.9743 C   0  0
   -1.8398   -0.6152   -0.3330 C   0  0
   -3.0482   -0.5520   -0.9115 C   0  0
    1.1237   -4.9816    0.3567 C   0  0
   -4.1955    0.1971   -0.3695 C   0  0
   -4.2241    0.5490    0.9799 C   0  0
   -5.2532    0.5543   -1.2060 C   0  0
   -5.3102    1.2579    1.4930 C   0  0
   -6.3393    1.2632   -0.6929 C   0  0
   -6.3678    1.6150    0.6566 C   0  0
    4.8930    0.5731   -0.5796 H   0  0
    3.5799    1.4324   -1.3751 H   0  0
    2.5598    1.8700    0.9537 H   0  0
    3.8658    0.9794    1.6485 H   0  0
    3.5512    3.8680    0.9104 H   0  0
    3.2683    3.9918   -0.8452 H   0  0
    4.6118    4.8505   -0.0671 H   0  0
    6.5179    2.1239   -1.7021 H   0  0
    6.4235    3.8565   -1.4459 H   0  0
    5.1987    3.0521   -2.4513 H   0  0
    6.3299    3.4283    0.9039 H   0  0
    2.8648   -3.5415    1.0597 H   0  0
    1.4136    1.6369   -0.6605 H   0  0
    4.5151   -2.3948    1.7503 H   0  0
   -1.6023   -0.1156    0.5989 H   0  0
   -3.2301   -1.0573   -1.8569 H   0  0
    2.0623   -5.1625   -0.1784 H   0  0
    1.2544   -4.9778    1.4442 H   0  0
    0.4604   -5.8208    0.1219 H   0  0
   -3.4342    0.2752    1.6729 H   0  0
   -5.2473    0.2896   -2.2606 H   0  0
   -5.3294    1.5256    2.5461 H   0  0
   -7.1569    1.5358   -1.3549 H   0  0
   -8.0650    2.4688    0.4405 H   0  0
  1  7  1  0
  1 38  1  0
  2 13  1  0
  2 40  1  0
  3 14  1  0
  3 41  1  0
  4 17  1  0
  4 21  1  0
  5 18  2  0
  6 27  1  0
  6 51  1  0
  7  8  1  0
  7 11  1  0
  7 12  1  0
  8  9  1  0
  8 28  1  0
  8 29  1  0
  9 10  1  0
  9 30  1  0
  9 31  1  0
 10 13  2  0
 10 14  1  0
 11 32  1  0
 11 33  1  0
 11 34  1  0
 12 35  1  0
 12 36  1  0
 12 37  1  0
 13 15  1  0
 14 16  2  0
 15 17  2  0
 15 18  1  0
 16 17  1  0
 16 39  1  0
 18 19  1  0
 19 20  2  0
 19 42  1  0
 20 22  1  0
 20 43  1  0
 21 44  1  0
 21 45  1  0
 21 46  1  0
 22 23  2  0
 22 24  1  0
 23 25  1  0
 23 47  1  0
 24 26  2  0
 24 48  1  0
 25 27  2  0
 25 49  1  0
 26 27  1  0
 26 50  1  0
M  END
> <Name>
23250007

> <OBJECTID>
9223372599498833934

> <PUBCHEM_COMPOUND_CID>
23250007

> <PUBCHEM_CONFORMER_RMSD>
0.8

> <PUBCHEM_CONFORMER_DIVERSEORDER>
4
118
119
32
127
128
24
73
20
106
87
96
66
91
67
92
80
77
95
64
6
39
61
109
18
50
12
13
90
60
41
72
28
75
16
62
30
3
86
125
25
111
35
27
120
68
58
48
63
81
1
101
29
43
108
93
26
113
55
47
70
124
107
56
44
8
36
103
9
57
79
52
78
97
104
34
110
83
21
5
17
84
23
53
69
114
105
71
117
11
85
102
115
116
94
54
31
65
51
88
122
42
89
14
82
76
98
22
38
123
112
126
74
46
100
99
19
15
33
59
45
10
7
49
40
121
37
2

> <PUBCHEM_MMFF94_PARTIAL_CHARGES>
35
1 -0.68
10 -0.14
13 0.08
14 0.08
15 0.09
16 -0.15
17 0.08
18 0.47
19 -0.14
2 -0.53
20 -0.18
21 0.28
22 0.03
23 -0.15
24 -0.15
25 -0.15
26 -0.15
27 0.08
3 -0.53
38 0.4
39 0.15
4 -0.36
40 0.45
41 0.45
42 0.15
43 0.15
47 0.15
48 0.15
49 0.15
5 -0.57
50 0.15
51 0.45
6 -0.53
7 0.28
9 0.14

> <PUBCHEM_EFFECTIVE_ROTOR_COUNT>
7

> <PUBCHEM_PHARMACOPHORE_FEATURES>
10
1 1 acceptor
1 1 donor
1 2 donor
1 3 donor
1 4 acceptor
1 5 acceptor
1 6 donor
3 7 11 12 hydrophobe
6 10 13 14 15 16 17 rings
6 22 23 24 25 26 27 rings

> <PUBCHEM_HEAVY_ATOM_COUNT>
27

> <PUBCHEM_ATOM_DEF_STEREO_COUNT>
0

> <PUBCHEM_ATOM_UDEF_STEREO_COUNT>
0

> <PUBCHEM_BOND_DEF_STEREO_COUNT>
1

> <PUBCHEM_BOND_UDEF_STEREO_COUNT>
0

> <PUBCHEM_ISOTOPIC_ATOM_COUNT>
0

> <PUBCHEM_COMPONENT_COUNT>
1

> <PUBCHEM_CACTVS_TAUTO_COUNT>
57

> <PUBCHEM_CONFORMER_ID>
0162C45700000004

> <PUBCHEM_MMFF94_ENERGY>
93.1632

> <PUBCHEM_FEATURE_SELFOVERLAP>
50.748

> <PUBCHEM_SHAPE_FINGERPRINT>
10411042 1 17761769564441536106
10670039 82 17060351694804780721
10816530 23 18408044009572030219
11505856 67 17395314849947220262
1200032 147 18261394472810466664
12390115 104 18266746959490706206
12422481 6 17241033401315261316
12788726 201 17489597718869262601
13540713 5 18193534861591862338
13885169 86 18265900331211332981
13955234 65 18190180096400531491
14251764 75 18411421747461498473
14347332 77 8935006971167153419
14790565 3 18337389456462824116
14840074 17 18261113019019033221
14849402 71 18266178340296979378
15238133 3 17988914583498985712
15475509 35 16081638955996905938
15475509 8 18200883855904790974
1979834 28 17968103005696527245
20511986 3 17629456646215590435
20739085 24 18259985951033157220
21033648 144 18187355558924521551
21424621 283 18271240655382766000
21756936 100 18196932390927833070
23845131 108 18261671570931010115
283562 15 17251730756601665490
3178227 256 18188489069661540938
38570 142 18341624736592731820
397830 11 18040726874693754881
4058900 60 18410864260611207699
474 4 18412256216747232627
5104073 3 18114177557995295155
57724786 102 18340488872483185341
59682541 52 15984834709281717044
6034566 193 18262800812168759117
633830 44 18343299275421999318
636775 72 17693932295832437920
77188 2 17689153413911391990

> <PUBCHEM_SHAPE_MULTIPOLES>
520.43
16.09
4.96
1.35
19
3.36
-0.13
-21.02
2.35
-7.36
0.15
0.52
-0.13
-2.57

> <PUBCHEM_SHAPE_SELFOVERLAP>
1103.078

> <PUBCHEM_SHAPE_VOLUME>
292.1

> <PUBCHEM_COORDINATE_TYPE>
2
5
10

$$$$
23250008
  SciTegic09112316443D

 61 62  0  0  0  0            999 V2000
    0.2231   -2.2959   -0.2150 O   0  0
    3.8389    0.1681    1.7032 O   0  0
    0.3920    2.4615   -0.6810 O   0  0
   -0.9396   -0.0432   -2.4499 O   0  0
   -8.4426    0.6609    1.3069 O   0  0
    2.0352   -1.0755    0.7497 C   0  0
    2.1152    1.3163    0.5112 C   0  0
    2.6736    0.1403    0.9944 C   0  0
    0.8443   -1.1043    0.0241 C   0  0
    0.2917    0.0827   -0.4568 C   0  0
    2.6287   -2.3479    1.2640 C   0  0
    0.9300    1.2985   -0.2121 C   0  0
    2.8057    2.6308    0.7760 C   0  0
    3.5827   -2.9855    0.2859 C   0  0
    3.7892    2.9876   -0.3028 C   0  0
   -0.9540    0.0527   -1.2157 C   0  0
    3.4852   -4.1937   -0.3011 C   0  0
    4.9301    3.6930   -0.1821 C   0  0
   -2.2499    0.1726   -0.4683 C   0  0
    4.4774   -4.7696   -1.2712 C   0  0
    2.3183   -5.0957    0.0019 C   0  0
   -0.7319   -2.7310    0.7491 C   0  0
    5.3492    4.2400    1.1567 C   0  0
    5.8734    4.0163   -1.3058 C   0  0
   -3.4175    0.1774   -1.1282 C   0  0
   -4.7383    0.3050   -0.4877 C   0  0
   -4.8694    0.0154    0.8606 C   0  0
   -5.8236    0.7115   -1.2469 C   0  0
   -6.1202    0.1357    1.4665 C   0  0
   -7.0743    0.8319   -0.6410 C   0  0
   -7.2225    0.5439    0.7156 C   0  0
    3.1877   -2.1530    2.1891 H   0  0
    1.8365   -3.0208    1.5962 H   0  0
    2.0560    3.4311    0.8285 H   0  0
    3.2510    2.6176    1.7759 H   0  0
    4.4570   -2.3827    0.0406 H   0  0
    3.5317    2.6470   -1.3058 H   0  0
    4.3576    0.9562    1.4780 H   0  0
   -0.4063    2.2891   -1.2049 H   0  0
   -2.1684    0.2781    0.6073 H   0  0
    3.9884   -5.0027   -2.2226 H   0  0
    4.9198   -5.6866   -0.8690 H   0  0
    5.2921   -4.0676   -1.4774 H   0  0
    2.6339   -6.1451   -0.0358 H   0  0
    1.5310   -4.9581   -0.7460 H   0  0
    1.8943   -4.9566    0.9981 H   0  0
   -0.7095   -2.1320    1.6663 H   0  0
   -0.5199   -3.7733    1.0029 H   0  0
   -1.7312   -2.6818    0.3079 H   0  0
    4.5493    4.2686    1.9000 H   0  0
    6.1767    3.6479    1.5609 H   0  0
    5.6945    5.2743    1.0461 H   0  0
    5.5350    3.5833   -2.2529 H   0  0
    5.9505    5.0997   -1.4421 H   0  0
    6.8702    3.6171   -1.0931 H   0  0
   -3.4329    0.0955   -2.2125 H   0  0
   -4.0450   -0.3266    1.4782 H   0  0
   -5.7237    0.9407   -2.3045 H   0  0
   -6.2311   -0.0947    2.5227 H   0  0
   -7.9251    1.1512   -1.2369 H   0  0
   -9.0887    0.9533    0.6411 H   0  0
  1  9  1  0
  1 22  1  0
  2  8  1  0
  2 38  1  0
  3 12  1  0
  3 39  1  0
  4 16  2  0
  5 31  1  0
  5 61  1  0
  6  8  1  0
  6  9  2  0
  6 11  1  0
  7  8  2  0
  7 12  1  0
  7 13  1  0
  9 10  1  0
 10 12  2  0
 10 16  1  0
 11 14  1  0
 11 32  1  0
 11 33  1  0
 13 15  1  0
 13 34  1  0
 13 35  1  0
 14 17  2  0
 14 36  1  0
 15 18  2  0
 15 37  1  0
 16 19  1  0
 17 20  1  0
 17 21  1  0
 18 23  1  0
 18 24  1  0
 19 25  2  0
 19 40  1  0
 20 41  1  0
 20 42  1  0
 20 43  1  0
 21 44  1  0
 21 45  1  0
 21 46  1  0
 22 47  1  0
 22 48  1  0
 22 49  1  0
 23 50  1  0
 23 51  1  0
 23 52  1  0
 24 53  1  0
 24 54  1  0
 24 55  1  0
 25 26  1  0
 25 56  1  0
 26 27  2  0
 26 28  1  0
 27 29  1  0
 27 57  1  0
 28 30  2  0
 28 58  1  0
 29 31  2  0
 29 59  1  0
 30 31  1  0
 30 60  1  0
M  END
> <Name>
23250008

> <OBJECTID>
9223372603793801230

> <PUBCHEM_COMPOUND_CID>
23250008

> <PUBCHEM_CONFORMER_RMSD>
1

> <PUBCHEM_CONFORMER_DIVERSEORDER>
2
83
107
36
116
67
35
77
21
40
20
111
25
11
53
69
31
34
18
65
101
119
120
114
90
47
26
105
108
94
19
32
59
41
104
121
95
27
58
28
84
117
115
15
73
13
112
62
118
63
7
4
96
82
12
42
54
75
98
74
81
24
17
109
29
99
50
10
45
79
100
86
106
70
52
76
89
23
9
88
60
80
22
14
71
66
8
103
49
44
39
113
48
16
92
46
33
93
68
122
72
1
37
102
61
51
30
64
97
57
6
87
56
5
78
3
85
43
110
91
55
38

> <PUBCHEM_MMFF94_PARTIAL_CHARGES>
42
1 -0.36
10 0.09
11 0.28
12 0.08
13 0.28
14 -0.29
15 -0.29
16 0.47
17 -0.28
18 -0.28
19 -0.14
2 -0.53
20 0.14
21 0.14
22 0.28
23 0.14
24 0.14
25 -0.18
26 0.03
27 -0.15
28 -0.15
29 -0.15
3 -0.53
30 -0.15
31 0.08
36 0.15
37 0.15
38 0.45
39 0.45
4 -0.57
40 0.15
5 -0.53
56 0.15
57 0.15
58 0.15
59 0.15
6 -0.14
60 0.15
61 0.45
7 -0.14
8 0.08
9 0.08

> <PUBCHEM_EFFECTIVE_ROTOR_COUNT>
8

> <PUBCHEM_PHARMACOPHORE_FEATURES>
9
1 1 acceptor
1 2 donor
1 3 donor
1 4 acceptor
1 5 donor
3 17 20 21 hydrophobe
3 18 23 24 hydrophobe
6 26 27 28 29 30 31 rings
6 6 7 8 9 10 12 rings

> <PUBCHEM_HEAVY_ATOM_COUNT>
31

> <PUBCHEM_ATOM_DEF_STEREO_COUNT>
0

> <PUBCHEM_ATOM_UDEF_STEREO_COUNT>
0

> <PUBCHEM_BOND_DEF_STEREO_COUNT>
1

> <PUBCHEM_BOND_UDEF_STEREO_COUNT>
0

> <PUBCHEM_ISOTOPIC_ATOM_COUNT>
0

> <PUBCHEM_COMPONENT_COUNT>
1

> <PUBCHEM_CACTVS_TAUTO_COUNT>
57

> <PUBCHEM_CONFORMER_ID>
0162C45800000002

> <PUBCHEM_MMFF94_ENERGY>
98.7809

> <PUBCHEM_FEATURE_SELFOVERLAP>
45.671

> <PUBCHEM_SHAPE_FINGERPRINT>
10076449 9 18125445211761257446
10169797 241 18040998397566927235
10319688 140 18410294666781300550
10411042 1 18051128086894210018
10554248 39 18270380712988891349
10670039 82 16128113203827607145
10674148 151 17917157212451115396
10721379 63 18343310236768842876
11505856 67 17182222950965219332
11763715 3 17690302416974535630
12160290 23 17035532676982087482
12166972 35 18129941153392529907
13008946 119 17984417714391953768
13140716 1 18118381051494153400
13533116 47 18341048532655116995
13540713 5 18125696093147348470
13673619 4 18044380430925534087
13757389 114 17326912067225927206
13785724 45 18055637209232000718
13955234 65 18410009914554697354
14114211 68 18337966682993408948
14790565 3 18120367911665541036
15183329 4 14835862693586881029
15297060 5 18268431420316958488
15324884 4 17460008735362183855
15392192 104 18189055451309142681
15420108 30 18193267731636732450
15684393 108 7925042805153927961
15927050 60 18268711782469878286
16992787 43 18341335509849229502
17913733 40 18336548334199103593
1813 80 17915179005794745390
19319366 153 18272082855208627976
20505436 4 17916586573782606373
21033648 29 17530953671689838429
21033650 10 15482407416882772907
21049683 271 18262527975073128302
21365058 113 18124602985653239270
21756936 100 18055065720878462965
21927370 108 18051691036958440482
24180151 248 18261116219122960708
24771750 20 18335426798775326718
249999 5 18409448085524176946
27425 322 18126002921695920020
3178227 256 18334005087106069672
3411729 13 18260263083529178944
38570 142 18201165467370986653
4144715 1 18186806851489335441
4516262 110 18340196501159296429
5385378 56 18410575114733722441
54076057 127 18410301323885598963
58260988 587 18336273413526673816
5912855 24 18200302364387883071
6703917 75 17977953715053313972
86090 222 17822862957581757107
9896288 288 17905609157076206714
9962374 69 18341315713907495647

> <PUBCHEM_SHAPE_MULTIPOLES>
608.62
16.98
6.27
1.49
36.73
4.58
-0.19
-11.64
2.54
-19.03
-0.8
0.39
-0.17
0.58

> <PUBCHEM_SHAPE_SELFOVERLAP>
1280.982

> <PUBCHEM_SHAPE_VOLUME>
344.4

> <PUBCHEM_COORDINATE_TYPE>
2
5
10

$$$$
23251195
  SciTegic09112316443D

 51 53  0  0  1  0            999 V2000
   -0.2645    0.2432   -0.3900 O   0  0
    0.9185   -5.0941   -0.3934 O   0  0
    3.8677    2.7463    0.1183 O   0  0
    3.9564   -1.9245   -0.6729 O   0  0
    1.5288    3.8909    0.1661 O   0  0
   -6.5238    0.5604   -0.2494 O   0  0
    0.8342   -2.8696    0.5305 C   0  0
    1.1294   -2.1186   -0.7812 C   0  0
    0.0866   -4.2072    0.3575 C   0  0
    1.8318   -0.8208   -0.5359 C   0  0
   -0.9359    1.2889    0.3300 C   0  0  1  0  0  0
    1.1012    0.3517   -0.3386 C   0  0
    1.7709    1.5611   -0.1308 C   0  0
   -0.5052    2.6649   -0.1740 C   0  0
    0.9853    2.8061   -0.0053 C   0  0
    3.2260   -0.7878   -0.4929 C   0  0
   -0.1578   -4.8407    1.7313 C   0  0
   -1.2412   -4.0423   -0.3850 C   0  0
    3.1669    1.5962   -0.0860 C   0  0
   -2.4295    1.0938    0.1755 C   0  0
    3.8915    0.4170   -0.2636 C   0  0
   -3.0170    1.1814   -1.0866 C   0  0
   -3.2181    0.8269    1.2948 C   0  0
   -4.3928    1.0020   -1.2296 C   0  0
   -4.5939    0.6475    1.1519 C   0  0
   -5.1813    0.7350   -0.1103 C   0  0
    4.1659    3.0923    1.4695 C   0  0
    1.7900   -3.0617    1.0374 H   0  0
    0.2537   -2.2161    1.1957 H   0  0
    0.2042   -1.9351   -1.3387 H   0  0
    1.7279   -2.7531   -1.4470 H   0  0
   -0.6711    1.1844    1.3927 H   0  0
   -1.0033    3.4544    0.3999 H   0  0
   -0.7184    2.8118   -1.2387 H   0  0
   -0.7904   -4.2066    2.3609 H   0  0
   -0.6396   -5.8202    1.6319 H   0  0
    0.7898   -5.0156    2.2535 H   0  0
   -1.7922   -4.9899   -0.4084 H   0  0
   -1.8777   -3.2892    0.0908 H   0  0
   -1.0854   -3.7659   -1.4329 H   0  0
    4.9782    0.4443   -0.2307 H   0  0
    0.4444   -5.9370   -0.4953 H   0  0
   -2.4187    1.3767   -1.9722 H   0  0
   -2.7752    0.7554    2.2845 H   0  0
    4.9025   -1.7083   -0.6087 H   0  0
   -4.8379    1.0701   -2.2185 H   0  0
   -5.2029    0.4397    2.0274 H   0  0
    3.2723    3.0488    2.1003 H   0  0
    4.9326    2.4195    1.8664 H   0  0
    4.5559    4.1137    1.4838 H   0  0
   -6.7582    0.6550   -1.1887 H   0  0
  1 11  1  0
  1 12  1  0
  2  9  1  0
  2 42  1  0
  3 19  1  0
  3 27  1  0
  4 16  1  0
  4 45  1  0
  5 15  2  0
  6 26  1  0
  6 51  1  0
  7  8  1  0
  7  9  1  0
  7 28  1  0
  7 29  1  0
  8 10  1  0
  8 30  1  0
  8 31  1  0
  9 17  1  0
  9 18  1  0
 10 12  2  0
 10 16  1  0
 11 14  1  0
 11 20  1  0
 11 32  1  0
 12 13  1  0
 13 15  1  0
 13 19  2  0
 14 15  1  0
 14 33  1  0
 14 34  1  0
 16 21  2  0
 17 35  1  0
 17 36  1  0
 17 37  1  0
 18 38  1  0
 18 39  1  0
 18 40  1  0
 19 21  1  0
 20 22  2  0
 20 23  1  0
 21 41  1  0
 22 24  1  0
 22 43  1  0
 23 25  2  0
 23 44  1  0
 24 26  2  0
 24 46  1  0
 25 26  1  0
 25 47  1  0
 27 48  1  0
 27 49  1  0
 27 50  1  0
M  END
> <Name>
23251195

> <OBJECTID>
9223372608088768526

> <PUBCHEM_COMPOUND_CID>
23251195

> <PUBCHEM_CONFORMER_RMSD>
0.8

> <PUBCHEM_CONFORMER_DIVERSEORDER>
1
27
31
26
16
25
34
37
21
41
7
36
32
24
15
39
11
12
13
33
19
29
28
9
3
38
17
22
30
14
35
23
40
10
8
6
18
5
20
4
2

> <PUBCHEM_MMFF94_PARTIAL_CHARGES>
32
1 -0.36
10 -0.14
11 0.42
12 0.08
13 0.09
14 0.06
15 0.42
16 0.08
19 0.08
2 -0.68
20 -0.14
21 -0.15
22 -0.15
23 -0.15
24 -0.15
25 -0.15
26 0.08
27 0.28
3 -0.36
4 -0.53
41 0.15
42 0.4
43 0.15
44 0.15
45 0.45
46 0.15
47 0.15
5 -0.57
51 0.45
6 -0.53
8 0.14
9 0.28

> <PUBCHEM_EFFECTIVE_ROTOR_COUNT>
5.6

> <PUBCHEM_PHARMACOPHORE_FEATURES>
11
1 1 acceptor
1 2 acceptor
1 2 donor
1 3 acceptor
1 4 donor
1 5 acceptor
1 6 donor
3 9 17 18 hydrophobe
6 1 11 12 13 14 15 rings
6 10 12 13 16 19 21 rings
6 20 22 23 24 25 26 rings

> <PUBCHEM_HEAVY_ATOM_COUNT>
27

> <PUBCHEM_ATOM_DEF_STEREO_COUNT>
0

> <PUBCHEM_ATOM_UDEF_STEREO_COUNT>
1

> <PUBCHEM_BOND_DEF_STEREO_COUNT>
0

> <PUBCHEM_BOND_UDEF_STEREO_COUNT>
0

> <PUBCHEM_ISOTOPIC_ATOM_COUNT>
0

> <PUBCHEM_COMPONENT_COUNT>
1

> <PUBCHEM_CACTVS_TAUTO_COUNT>
18

> <PUBCHEM_CONFORMER_ID>
0162C8FB00000001

> <PUBCHEM_MMFF94_ENERGY>
88.4232

> <PUBCHEM_FEATURE_SELFOVERLAP>
55.863

> <PUBCHEM_SHAPE_FINGERPRINT>
10074138 170 17834361856200498184
1100329 8 18411133637129606534
114674 6 18338242557021016178
12107183 9 17406000557409418809
12156800 1 17694185131196098811
12236239 1 17561085822008759293
12553582 1 16969148038467480159
13140716 1 18412263943335044474
13540713 4 17912938468076276476
1361 2 18410009962184193193
13692114 37 17911222142592541719
138480 1 17978229357559498711
13911987 19 18190204350307049692
14863182 85 18334587827535996477
15483637 11 18122064462740211975
15927050 60 18339358686521020494
16728300 4 17317857215504177546
17134984 74 18266439037086783551
17138139 8 17556550439591237655
19427546 62 18337954622572241557
19591789 44 18410580543783088918
19930381 70 18265336093241781363
20028762 73 18272367529719904614
20511986 3 17703497823570776121
20645477 70 18408601444444226461
20739085 24 18265070079826355904
21049683 118 18195500787764316970
21197605 99 18197787794100952303
21285901 2 17458908120444790133
21421861 104 17759816839904637473
21796203 349 17834707918479187819
23558518 356 17612305664359566296
23559900 14 17976529512577519821
283562 15 18124324809543707728
3178227 256 18337121050987140818
3383291 50 18337388220272353098
350125 39 17475518755927821600
3882209 13 16963760474921306539
4616759 239 15963679779383975226
463206 1 18264214604287976843
5309563 4 17978510836794363799
653340 110 17836642303197802480
7399639 24 18261100860309178293
9777508 108 18051692436505056584

> <PUBCHEM_SHAPE_MULTIPOLES>
520.43
9.04
6.36
1.13
10.8
9.62
0.3
-6.74
-0.05
-3.94
1.64
0.36
0.25
1.17

> <PUBCHEM_SHAPE_SELFOVERLAP>
1121.79

> <PUBCHEM_SHAPE_VOLUME>
286.4

> <PUBCHEM_COORDINATE_TYPE>
2
5
10

$$$$
23251201
  SciTegic09112316443D

 37 39  0  0  0  0            999 V2000
    1.4592    1.8579    0.9082 O   0  0
    2.4391   -2.7397   -0.2334 O   0  0
    5.4837    0.7955   -1.2329 O   0  0
    0.5192   -1.7771    1.8758 O   0  0
   -6.8646    1.0219   -1.1027 O   0  0
    2.1956    0.8310    0.3978 C   0  0
    3.3920    1.3105   -0.1253 C   0  0
    1.8220   -0.5117    0.3907 C   0  0
    2.7287   -1.4061   -0.1860 C   0  0
    4.2895    0.3933   -0.6996 C   0  0
    3.9412   -0.9643   -0.7216 C   0  0
    3.3702    2.7144    0.0857 C   0  0
    0.5559   -0.9464    0.9541 C   0  0
    2.1787    2.9938    0.7139 C   0  0
   -0.7184   -0.3933    0.3779 C   0  0
   -3.2088   -0.3128    0.3398 C   0  0
   -1.9104   -0.7875    0.8497 C   0  0
   -3.2808    0.8781   -0.3828 C   0  0
   -4.3656   -1.0550    0.5781 C   0  0
    1.7435   -3.2080   -1.3853 C   0  0
   -4.5093    1.3269   -0.8671 C   0  0
   -5.5944   -0.6061    0.0939 C   0  0
   -5.6661    0.5849   -0.6287 C   0  0
    4.6235   -1.6891   -1.1615 H   0  0
    4.1292    3.4340   -0.1868 H   0  0
    1.7186    3.9037    1.0706 H   0  0
   -0.6079    0.3020   -0.4462 H   0  0
   -1.9673   -1.5133    1.6572 H   0  0
    5.9519    0.0151   -1.5759 H   0  0
   -2.4107    1.4988   -0.5751 H   0  0
   -4.3280   -1.9863    1.1380 H   0  0
    1.5650   -4.2800   -1.2653 H   0  0
    2.3465   -3.0534   -2.2858 H   0  0
    0.7779   -2.7036   -1.4904 H   0  0
   -4.5603    2.2575   -1.4259 H   0  0
   -6.4882   -1.1937    0.2856 H   0  0
   -7.5554    0.3870   -0.8462 H   0  0
  1  6  1  0
  1 14  1  0
  2  9  1  0
  2 20  1  0
  3 10  1  0
  3 29  1  0
  4 13  2  0
  5 23  1  0
  5 37  1  0
  6  7  2  0
  6  8  1  0
  7 10  1  0
  7 12  1  0
  8  9  2  0
  8 13  1  0
  9 11  1  0
 10 11  2  0
 11 24  1  0
 12 14  2  0
 12 25  1  0
 13 15  1  0
 14 26  1  0
 15 17  2  0
 15 27  1  0
 16 17  1  0
 16 18  2  0
 16 19  1  0
 17 28  1  0
 18 21  1  0
 18 30  1  0
 19 22  2  0
 19 31  1  0
 20 32  1  0
 20 33  1  0
 20 34  1  0
 21 23  2  0
 21 35  1  0
 22 23  1  0
 22 36  1  0
M  END
> <Name>
23251201

> <OBJECTID>
9223372612383735822

> <PUBCHEM_COMPOUND_CID>
23251201

> <PUBCHEM_CONFORMER_RMSD>
0.6

> <PUBCHEM_CONFORMER_DIVERSEORDER>
1
44
18
35
17
8
21
5
29
43
12
25
22
27
33
6
23
9
3
34
24
37
4
41
19
11
14
16
39
2
26
32
42
36
15
13
30
20
40
7
10
45
31
38
46
28

> <PUBCHEM_MMFF94_PARTIAL_CHARGES>
33
1 -0.28
10 0.08
11 -0.15
12 -0.15
13 0.47
14 -0.01
15 -0.14
16 0.03
17 -0.18
18 -0.15
19 -0.15
2 -0.36
20 0.28
21 -0.15
22 -0.15
23 0.08
24 0.15
25 0.15
26 0.15
27 0.15
28 0.15
29 0.45
3 -0.53
30 0.15
31 0.15
35 0.15
36 0.15
37 0.45
4 -0.57
5 -0.53
6 0.14
8 0.09
9 0.08

> <PUBCHEM_EFFECTIVE_ROTOR_COUNT>
4

> <PUBCHEM_PHARMACOPHORE_FEATURES>
8
1 1 acceptor
1 2 acceptor
1 3 donor
1 4 acceptor
1 5 donor
5 1 6 7 12 14 rings
6 16 18 19 21 22 23 rings
6 6 7 8 9 10 11 rings

> <PUBCHEM_HEAVY_ATOM_COUNT>
23

> <PUBCHEM_ATOM_DEF_STEREO_COUNT>
0

> <PUBCHEM_ATOM_UDEF_STEREO_COUNT>
0

> <PUBCHEM_BOND_DEF_STEREO_COUNT>
1

> <PUBCHEM_BOND_UDEF_STEREO_COUNT>
0

> <PUBCHEM_ISOTOPIC_ATOM_COUNT>
0

> <PUBCHEM_COMPONENT_COUNT>
1

> <PUBCHEM_CACTVS_TAUTO_COUNT>
10

> <PUBCHEM_CONFORMER_ID>
0162C90100000001

> <PUBCHEM_MMFF94_ENERGY>
72.239

> <PUBCHEM_FEATURE_SELFOVERLAP>
40.7

> <PUBCHEM_SHAPE_FINGERPRINT>
10498660 4 17894623743398282037
10693767 8 17845663543133924566
11595378 159 14852155196836254301
12403259 415 18261117434381881289
12730499 353 18337398226617172659
12769317 202 18410008849149412160
13402501 40 18260547839755571125
13836976 161 17918274246721883550
14528608 73 18334849537811331535
14931854 50 18410299068738073204
15183329 4 18272370833272064585
15210252 30 17748832929492809604
15475509 35 13541910028378082638
15961568 22 17676490574638038973
16989378 47 16772135569586426214
17844677 252 18341899559182188649
20645477 70 18343306950401780639
21033648 29 18041560351151356049
21637258 2 15625671505670242494
221357 26 18412543189371791845
22224240 67 7997683156906197572
22289505 5 18409446951505286732
22393880 68 18200313345975297062
23557571 272 17822586009484251419
23559900 14 18413103974713885057
238 59 18342186604283154538
3009799 131 18413112784335568956
3060560 45 18273219711919602958
34797466 226 18410290303616650431
3545911 37 18334016112155333497
4072396 5 18409157810871757138
46194498 28 18413107238857362231
495365 180 18200588215555855832
5104073 3 17895189988002784505
5281201 14 18339925922513790303
5312625 73 18409450323624384787
53794403 172 17750804444215073317
59682541 52 18200016362573002037
59755656 215 18335139795241879573
6442390 28 17894910771371989747
7808743 9 17386295427162962564

> <PUBCHEM_SHAPE_MULTIPOLES>
443.98
13.09
2.9
1.17
18.68
0.17
0.07
-4
-5.06
-3.53
-0.22
-0.03
0.31
1.42

> <PUBCHEM_SHAPE_SELFOVERLAP>
979.28

> <PUBCHEM_SHAPE_VOLUME>
240.4

> <PUBCHEM_COORDINATE_TYPE>
2
5
10

$$$$
23251203
  SciTegic09112316443D

 48 50  0  0  0  0            999 V2000
    1.2092    1.3174    0.7404 O   0  0
    5.2943   -0.1906   -1.3911 O   0  0
    2.0105   -3.3066    0.0378 O   0  0
    0.2679   -1.9822    2.0078 O   0  0
   -6.9751    0.9041   -1.2230 O   0  0
    1.5100    2.6878    0.4156 C   0  0
    3.0208    2.9677    0.4691 C   0  0
    3.7898    2.0479   -0.4686 C   0  0
    3.3038    0.6365   -0.3218 C   0  0
    2.0597    0.3586    0.2566 C   0  0
    0.8113    3.5363    1.4881 C   0  0
    0.8924    3.0230   -0.9505 C   0  0
    1.6258   -0.9637    0.3884 C   0  0
    4.0886   -0.4231   -0.7969 C   0  0
    2.4192   -2.0114   -0.0767 C   0  0
    3.6488   -1.7411   -0.6724 C   0  0
    0.3359   -1.2615    1.0045 C   0  0
   -0.9035   -0.6990    0.3735 C   0  0
    1.2528   -3.8442   -1.0439 C   0  0
   -2.1113   -0.9701    0.8898 C   0  0
   -3.3856   -0.4791    0.3363 C   0  0
   -3.3970    0.6286   -0.5116 C   0  0
   -4.5804   -1.1220    0.6599 C   0  0
   -4.6032    1.0934   -1.0356 C   0  0
   -5.7866   -0.6572    0.1360 C   0  0
   -5.7980    0.4504   -0.7118 C   0  0
    3.3820    2.7900    1.4919 H   0  0
    3.2403    4.0147    0.2287 H   0  0
    3.6605    2.3665   -1.5094 H   0  0
    4.8571    2.1178   -0.2284 H   0  0
    0.9640    4.6075    1.3200 H   0  0
    1.1837    3.2846    2.4879 H   0  0
   -0.2666    3.3369    1.5035 H   0  0
    1.2836    2.3811   -1.7464 H   0  0
    1.0758    4.0663   -1.2273 H   0  0
   -0.1908    2.8543   -0.9357 H   0  0
    4.2610   -2.5624   -1.0375 H   0  0
    5.6898   -1.0391   -1.6545 H   0  0
   -0.7643   -0.1109   -0.5262 H   0  0
    0.3408   -3.2629   -1.2106 H   0  0
    1.8550   -3.8658   -1.9578 H   0  0
    0.9708   -4.8692   -0.7877 H   0  0
   -2.2016   -1.5969    1.7737 H   0  0
   -2.4947    1.1730   -0.7743 H   0  0
   -4.5902   -1.9874    1.3180 H   0  0
   -4.6068    1.9595   -1.6919 H   0  0
   -6.7106   -1.1670    0.3956 H   0  0
   -7.6983    0.3423   -0.8951 H   0  0
  1  6  1  0
  1 10  1  0
  2 14  1  0
  2 38  1  0
  3 15  1  0
  3 19  1  0
  4 17  2  0
  5 26  1  0
  5 48  1  0
  6  7  1  0
  6 11  1  0
  6 12  1  0
  7  8  1  0
  7 27  1  0
  7 28  1  0
  8  9  1  0
  8 29  1  0
  8 30  1  0
  9 10  2  0
  9 14  1  0
 10 13  1  0
 11 31  1  0
 11 32  1  0
 11 33  1  0
 12 34  1  0
 12 35  1  0
 12 36  1  0
 13 15  2  0
 13 17  1  0
 14 16  2  0
 15 16  1  0
 16 37  1  0
 17 18  1  0
 18 20  2  0
 18 39  1  0
 19 40  1  0
 19 41  1  0
 19 42  1  0
 20 21  1  0
 20 43  1  0
 21 22  2  0
 21 23  1  0
 22 24  1  0
 22 44  1  0
 23 25  2  0
 23 45  1  0
 24 26  2  0
 24 46  1  0
 25 26  1  0
 25 47  1  0
M  END
> <Name>
23251203

> <OBJECTID>
9223372616678703118

> <PUBCHEM_COMPOUND_CID>
23251203

> <PUBCHEM_CONFORMER_RMSD>
0.8

> <PUBCHEM_CONFORMER_DIVERSEORDER>
1
9
8
18
19
7
17
2
11
12
3
13
16
10
15
5
14
21
20
6
4

> <PUBCHEM_MMFF94_PARTIAL_CHARGES>
32
1 -0.36
10 0.08
13 0.09
14 0.08
15 0.08
16 -0.15
17 0.47
18 -0.14
19 0.28
2 -0.53
20 -0.18
21 0.03
22 -0.15
23 -0.15
24 -0.15
25 -0.15
26 0.08
3 -0.36
37 0.15
38 0.45
39 0.15
4 -0.57
43 0.15
44 0.15
45 0.15
46 0.15
47 0.15
48 0.45
5 -0.53
6 0.28
8 0.14
9 -0.14

> <PUBCHEM_EFFECTIVE_ROTOR_COUNT>
4.8

> <PUBCHEM_PHARMACOPHORE_FEATURES>
9
1 1 acceptor
1 2 donor
1 3 acceptor
1 4 acceptor
1 5 donor
3 6 11 12 hydrophobe
6 1 6 7 8 9 10 rings
6 21 22 23 24 25 26 rings
6 9 10 13 14 15 16 rings

> <PUBCHEM_HEAVY_ATOM_COUNT>
26

> <PUBCHEM_ATOM_DEF_STEREO_COUNT>
0

> <PUBCHEM_ATOM_UDEF_STEREO_COUNT>
0

> <PUBCHEM_BOND_DEF_STEREO_COUNT>
1

> <PUBCHEM_BOND_UDEF_STEREO_COUNT>
0

> <PUBCHEM_ISOTOPIC_ATOM_COUNT>
0

> <PUBCHEM_COMPONENT_COUNT>
1

> <PUBCHEM_CACTVS_TAUTO_COUNT>
10

> <PUBCHEM_CONFORMER_ID>
0162C90300000001

> <PUBCHEM_MMFF94_ENERGY>
95.4834

> <PUBCHEM_FEATURE_SELFOVERLAP>
45.701

> <PUBCHEM_SHAPE_FINGERPRINT>
10693767 8 17987805103384881454
11595378 159 14562796726228629861
12403259 415 18187088399078965985
12730499 353 18336272322631763987
12769317 202 18408036325378826779
13402501 40 18259703423536595629
13911987 19 18267047062352535702
14251757 17 18261671480862978765
14681490 219 18413106139415098221
14931854 50 18335989657627203372
15081414 286 18336274538771974697
15210252 30 17749398065605514716
16988056 13 18409444825449938189
17093844 170 18261670467288009940
17492 54 18188790400287482196
17844677 252 18412831261987357723
17909252 39 18200031733738604088
18608769 82 17896050987143236955
21033648 29 17967533519203697281
21285901 2 17968657107880019429
21792961 116 18115046133938131394
221357 26 18411135810330252533
22289505 5 18408882910651199789
22393880 68 18261388983868525251
23227448 37 18265050417750365839
23559900 14 18409726279541564369
238 59 18340777055903407034
3060560 45 18343304781918147470
340366 18 18060138777355606438
46194498 28 18114187496628804013
495365 180 18270676584094227160
508706 21 17896037827136536547
5312625 73 18336547218145799435
53794403 172 17750803344866800437
574716 61 17987788739505839301
59755656 215 18260546732054630013
6443956 14 18412268350082565276
7471813 234 17704075087953577520

> <PUBCHEM_SHAPE_MULTIPOLES>
505.72
11.95
4.04
1.26
20.8
0.31
-0.16
1.45
4.96
-4.54
-0.18
0.11
0.04
1.43

> <PUBCHEM_SHAPE_SELFOVERLAP>
1095.636

> <PUBCHEM_SHAPE_VOLUME>
276.5

> <PUBCHEM_COORDINATE_TYPE>
2
5
10

$$$$
23251204
  SciTegic09112316443D

 49 51  0  0  1  0            999 V2000
   -1.1147    1.1871    0.5850 O   0  0
   -3.4682    2.7171    1.5049 O   0  0
   -5.1414   -0.5320   -1.4932 O   0  0
   -1.7968   -3.4855    0.1256 O   0  0
   -0.1115   -1.9712    2.0634 O   0  0
    7.0756    1.0301   -1.1874 O   0  0
   -1.4270    2.5295    0.1630 C   0  0
   -2.9465    2.8013    0.1758 C   0  0  1  0  0  0
   -3.7064    1.7902   -0.6775 C   0  0
   -3.1809    0.4004   -0.4548 C   0  0
   -1.9366    0.1841    0.1467 C   0  0
   -0.6997    3.4498    1.1574 C   0  0
   -0.8161    2.7590   -1.2313 C   0  0
   -1.4725   -1.1183    0.3533 C   0  0
   -3.9353   -0.7025   -0.8788 C   0  0
   -2.2356   -2.2087   -0.0616 C   0  0
   -3.4653   -2.0009   -0.6813 C   0  0
   -0.1817   -1.3508    0.9951 C   0  0
    1.0497   -0.7930    0.3449 C   0  0
   -1.0158   -4.0614   -0.9192 C   0  0
    2.2527   -0.9586    0.9144 C   0  0
    3.5163   -0.4375    0.3638 C   0  0
    3.4961    0.6062   -0.5614 C   0  0
    4.7326   -0.9880    0.7677 C   0  0
    4.6920    1.0994   -1.0826 C   0  0
    5.9287   -0.4948    0.2465 C   0  0
    5.9084    0.5489   -0.6787 C   0  0
   -3.1538    3.8176   -0.1797 H   0  0
   -3.5933    2.0358   -1.7400 H   0  0
   -4.7745    1.8277   -0.4314 H   0  0
   -1.0221    3.2551    2.1864 H   0  0
   -0.8756    4.5062    0.9304 H   0  0
    0.3814    3.2665    1.1405 H   0  0
   -0.9942    3.7810   -1.5817 H   0  0
   -1.2171    2.0648   -1.9767 H   0  0
    0.2660    2.5838   -1.2127 H   0  0
   -4.4064    2.9703    1.4703 H   0  0
   -4.0540   -2.8551   -1.0070 H   0  0
   -5.5138   -1.4028   -1.7141 H   0  0
    0.9086   -0.2845   -0.6019 H   0  0
   -1.6081   -4.1461   -1.8358 H   0  0
   -0.1162   -3.4678   -1.1086 H   0  0
   -0.7121   -5.0641   -0.6061 H   0  0
    2.3463   -1.5055    1.8495 H   0  0
    2.5748    1.0791   -0.8888 H   0  0
    4.7672   -1.8028    1.4869 H   0  0
    4.6707    1.9157   -1.7996 H   0  0
    6.8696   -0.9324    0.5690 H   0  0
    7.8167    0.5342   -0.7989 H   0  0
  1  7  1  0
  1 11  1  0
  2  8  1  0
  2 37  1  0
  3 15  1  0
  3 39  1  0
  4 16  1  0
  4 20  1  0
  5 18  2  0
  6 27  1  0
  6 49  1  0
  7  8  1  0
  7 12  1  0
  7 13  1  0
  8  9  1  0
  8 28  1  0
  9 10  1  0
  9 29  1  0
  9 30  1  0
 10 11  2  0
 10 15  1  0
 11 14  1  0
 12 31  1  0
 12 32  1  0
 12 33  1  0
 13 34  1  0
 13 35  1  0
 13 36  1  0
 14 16  2  0
 14 18  1  0
 15 17  2  0
 16 17  1  0
 17 38  1  0
 18 19  1  0
 19 21  2  0
 19 40  1  0
 20 41  1  0
 20 42  1  0
 20 43  1  0
 21 22  1  0
 21 44  1  0
 22 23  2  0
 22 24  1  0
 23 25  1  0
 23 45  1  0
 24 26  2  0
 24 46  1  0
 25 27  2  0
 25 47  1  0
 26 27  1  0
 26 48  1  0
M  END
> <Name>
23251204

> <OBJECTID>
9223372620973670414

> <PUBCHEM_COMPOUND_CID>
23251204

> <PUBCHEM_CONFORMER_RMSD>
0.8

> <PUBCHEM_CONFORMER_DIVERSEORDER>
1
22
17
28
12
26
31
9
23
2
27
20
18
29
10
30
3
8
4
19
25
15
11
24
35
21
33
13
34
32
7
6
14
5
16

> <PUBCHEM_MMFF94_PARTIAL_CHARGES>
35
1 -0.36
10 -0.14
11 0.08
14 0.09
15 0.08
16 0.08
17 -0.15
18 0.47
19 -0.14
2 -0.68
20 0.28
21 -0.18
22 0.03
23 -0.15
24 -0.15
25 -0.15
26 -0.15
27 0.08
3 -0.53
37 0.4
38 0.15
39 0.45
4 -0.36
40 0.15
44 0.15
45 0.15
46 0.15
47 0.15
48 0.15
49 0.45
5 -0.57
6 -0.53
7 0.28
8 0.28
9 0.14

> <PUBCHEM_EFFECTIVE_ROTOR_COUNT>
4.8

> <PUBCHEM_PHARMACOPHORE_FEATURES>
11
1 1 acceptor
1 2 acceptor
1 2 donor
1 3 donor
1 4 acceptor
1 5 acceptor
1 6 donor
3 7 12 13 hydrophobe
6 1 7 8 9 10 11 rings
6 10 11 14 15 16 17 rings
6 22 23 24 25 26 27 rings

> <PUBCHEM_HEAVY_ATOM_COUNT>
27

> <PUBCHEM_ATOM_DEF_STEREO_COUNT>
0

> <PUBCHEM_ATOM_UDEF_STEREO_COUNT>
1

> <PUBCHEM_BOND_DEF_STEREO_COUNT>
1

> <PUBCHEM_BOND_UDEF_STEREO_COUNT>
0

> <PUBCHEM_ISOTOPIC_ATOM_COUNT>
0

> <PUBCHEM_COMPONENT_COUNT>
1

> <PUBCHEM_CACTVS_TAUTO_COUNT>
10

> <PUBCHEM_CONFORMER_ID>
0162C90400000001

> <PUBCHEM_MMFF94_ENERGY>
100.4396

> <PUBCHEM_FEATURE_SELFOVERLAP>
55.852

> <PUBCHEM_SHAPE_FINGERPRINT>
10670039 82 18408888421785252652
10871710 139 18335979771129543117
10906281 52 18265045844168929479
10937287 8 17622734119727088864
11049842 53 17982720888561415834
11578080 2 16270549360227322941
12107183 9 17902504897065465386
12788726 201 18413100650145681179
13583140 156 14996286928762312544
13911987 19 18336249190365221519
13994607 96 17895209799805835377
14251757 5 18339078297490488758
14713325 29 18409738369495487387
14790565 3 18053949450742466145
14840074 17 17895766096924156149
14910302 57 17988647376604534334
14931854 50 18335413560799903596
14955137 171 18267309918693880483
15021287 119 17461985576187156274
15064981 113 18270391686598560750
15064981 194 18042985330831204847
15163728 17 18199197195543924510
15183329 4 18186803548775321366
15297060 5 18200878361697049233
15575132 122 18041838394370193069
16994733 274 15502917655363724527
17492 54 18188474827449234109
17818456 19 18194386811378180426
19958102 18 18339640032511634166
20101258 96 17902803186079958715
20511986 3 17967798462856560260
20642791 239 17968365857974512733
20642791 35 18338506568792557385
20775438 99 16616688024591281887
21304303 64 17458340802531007333
23366157 5 17759518872739728971
23557571 272 18202288004724079156
23559900 14 18267577095302436832
255183 451 17694497453029583047
4258327 124 15937273229525648270
469060 322 16950862370055159097
474 4 17821726092306324450
484989 97 18118392081382490175
508706 21 18271823297755900182
531348 171 18411990144214478318
5364581 5 7925046094835060806
6034566 193 18122626042477908961
6700243 42 17626142915453503918
70251023 43 17473818902250841867
9981440 41 18337110072845419867

> <PUBCHEM_SHAPE_MULTIPOLES>
520.43
11.94
4.14
1.31
22.12
0.41
-0.16
-2.21
4.3
-4.78
-0.17
-0.07
-0.12
-1.73

> <PUBCHEM_SHAPE_SELFOVERLAP>
1128.614

> <PUBCHEM_SHAPE_VOLUME>
284.2

> <PUBCHEM_COORDINATE_TYPE>
2
5
10

$$$$
24721373
  SciTegic09112316443D

 95100  0  0  1  0            999 V2000
    4.7956    0.0555    0.0003 O   0  0
   -3.9825   -1.1779   -0.2189 O   0  0
   -1.8645   -0.3757   -0.6743 O   0  0
    3.5380    1.6983   -1.0785 O   0  0
    5.2424    1.8405    2.1502 O   0  0
   -3.9455    1.0496    0.4746 O   0  0
    5.1334    4.6545    1.2842 O   0  0
    2.7127    5.1598   -0.2127 O   0  0
   -6.5896   -0.7910   -1.2489 O   0  0
    1.4341    2.0717   -2.8078 O   0  0
   -8.0313    1.3443    0.1804 O   0  0
   -6.4222    3.7424    0.3071 O   0  0
   -2.2719    3.1852    0.9154 O   0  0
    2.2732   -2.4325   -0.8892 C   0  0  2  0  0  0
    1.7563   -2.9652    0.4958 C   0  0  2  0  0  0
    0.2522   -2.6076    0.8680 C   0  0  1  0  0  0
   -0.6645   -2.8998   -0.3698 C   0  0  2  0  0  0
    2.7484   -0.9753   -0.7968 C   0  0
    1.2456   -2.6563   -2.0025 C   0  0
    4.0021   -1.1137    0.0641 C   0  0  2  0  0  0
    2.7724   -2.7067    1.6454 C   0  0
    3.6157   -3.1318   -1.2765 C   0  0
   -0.1570   -2.1894   -1.6395 C   0  0
   -2.1990   -2.7046   -0.1095 C   0  0  2  0  0  0
   -0.1957   -3.5333    2.0535 C   0  0
    3.6030   -1.4237    1.5105 C   0  0
    4.6694   -2.3023   -0.5846 C   0  0
    0.1076   -1.1445    1.3498 C   0  0
   -2.5928   -3.0860    1.3376 C   0  0
   -1.6216   -4.0798    1.9554 C   0  0
   -3.0082   -3.5841   -1.0886 C   0  0
   -2.6316   -1.2798   -0.3722 C   0  0
    5.9785   -2.5773   -0.5988 C   0  0
    4.0150    1.2363    0.1831 C   0  0  2  0  0  0
    4.9050    2.2920    0.8388 C   0  0  1  0  0  0
    4.1904    3.6402    0.9345 C   0  0  2  0  0  0
   -4.5281    0.1225   -0.4385 C   0  0  2  0  0  0
    2.7258    2.8679   -0.9625 C   0  0  1  0  0  0
    3.5547    4.0256   -0.4013 C   0  0  1  0  0  0
   -6.0399    0.0404   -0.2272 C   0  0  1  0  0  0
    2.1774    3.1864   -2.3498 C   0  0
   -6.6869    1.4239   -0.2959 C   0  0  2  0  0  0
   -4.4325    2.3800    0.2902 C   0  0  1  0  0  0
   -5.9352    2.4301    0.5756 C   0  0  1  0  0  0
   -3.6484    3.2911    1.2295 C   0  0
    1.7398   -4.0613    0.3769 H   0  0
   -0.5343   -3.9755   -0.5726 H   0  0
    1.9954   -0.3055   -0.3906 H   0  0
    2.9937   -0.5949   -1.7991 H   0  0
    1.2034   -3.7267   -2.2456 H   0  0
    1.5631   -2.1511   -2.9238 H   0  0
    2.2943   -2.7305    2.6302 H   0  0
    3.4741   -3.5527    1.6592 H   0  0
    3.6408   -4.1792   -0.9583 H   0  0
    3.7800   -3.0892   -2.3603 H   0  0
   -0.0801   -1.1068   -1.5432 H   0  0
   -0.8175   -2.3948   -2.4886 H   0  0
    0.4698   -4.4010    2.1458 H   0  0
   -0.0945   -2.9936    3.0044 H   0  0
    3.0368   -0.6022    1.9582 H   0  0
    4.5020   -1.5084    2.1359 H   0  0
    0.2730   -0.4094    0.5654 H   0  0
    0.8059   -0.9194    2.1608 H   0  0
   -0.8827   -0.9414    1.7650 H   0  0
   -2.6458   -2.1992    1.9814 H   0  0
   -3.6025   -3.5157    1.3654 H   0  0
   -1.9674   -4.3649    2.9560 H   0  0
   -1.6182   -5.0020    1.3608 H   0  0
   -2.8740   -3.2640   -2.1276 H   0  0
   -4.0856   -3.5541   -0.8873 H   0  0
   -2.7018   -4.6340   -1.0193 H   0  0
    6.6935   -1.9366   -0.0948 H   0  0
    6.3583   -3.4537   -1.1127 H   0  0
    3.1613    1.0669    0.8480 H   0  0
    5.8471    2.3951    0.2876 H   0  0
    3.4416    3.6308    1.7353 H   0  0
   -4.2988    0.4164   -1.4721 H   0  0
    1.8742    2.6378   -0.3074 H   0  0
    4.3382    4.3146   -1.1125 H   0  0
   -6.2673   -0.4432    0.7303 H   0  0
    4.4181    1.7379    2.6559 H   0  0
    1.5218    4.0622   -2.3313 H   0  0
    2.9920    3.3586   -3.0611 H   0  0
   -6.7507    1.7755   -1.3323 H   0  0
    5.8231    4.6756    0.5989 H   0  0
   -4.2162    2.6897   -0.7415 H   0  0
   -6.1305    2.2190    1.6342 H   0  0
    2.0054    4.9093    0.4060 H   0  0
   -6.3967   -0.3797   -2.1087 H   0  0
   -3.9537    4.3363    1.1231 H   0  0
   -3.7772    2.9803    2.2717 H   0  0
    1.0986    2.2942   -3.6929 H   0  0
   -8.0090    1.0170    1.0958 H   0  0
   -6.2413    3.9447   -0.6267 H   0  0
   -1.7918    3.7686    1.5275 H   0  0
  1 20  1  0
  1 34  1  0
  2 32  1  0
  2 37  1  0
  3 32  2  0
  4 34  1  0
  4 38  1  0
  5 35  1  0
  5 81  1  0
  6 37  1  0
  6 43  1  0
  7 36  1  0
  7 85  1  0
  8 39  1  0
  8 88  1  0
  9 40  1  0
  9 89  1  0
 10 41  1  0
 10 92  1  0
 11 42  1  0
 11 93  1  0
 12 44  1  0
 12 94  1  0
 13 45  1  0
 13 95  1  0
 14 15  1  0
 14 18  1  0
 14 19  1  0
 14 22  1  0
 15 16  1  0
 15 21  1  0
 15 46  1  0
 16 17  1  0
 16 25  1  0
 16 28  1  0
 17 23  1  0
 17 24  1  0
 17 47  1  0
 18 20  1  0
 18 48  1  0
 18 49  1  0
 19 23  1  0
 19 50  1  0
 19 51  1  0
 20 26  1  0
 20 27  1  0
 21 26  1  0
 21 52  1  0
 21 53  1  0
 22 27  1  0
 22 54  1  0
 22 55  1  0
 23 56  1  0
 23 57  1  0
 24 29  1  0
 24 31  1  0
 24 32  1  0
 25 30  1  0
 25 58  1  0
 25 59  1  0
 26 60  1  0
 26 61  1  0
 27 33  2  0
 28 62  1  0
 28 63  1  0
 28 64  1  0
 29 30  1  0
 29 65  1  0
 29 66  1  0
 30 67  1  0
 30 68  1  0
 31 69  1  0
 31 70  1  0
 31 71  1  0
 33 72  1  0
 33 73  1  0
 34 35  1  0
 34 74  1  0
 35 36  1  0
 35 75  1  0
 36 39  1  0
 36 76  1  0
 37 40  1  0
 37 77  1  0
 38 39  1  0
 38 41  1  0
 38 78  1  0
 39 79  1  0
 40 42  1  0
 40 80  1  0
 41 82  1  0
 41 83  1  0
 42 44  1  0
 42 84  1  0
 43 44  1  0
 43 45  1  0
 43 86  1  0
 44 87  1  0
 45 90  1  0
 45 91  1  0
M  END
> <Name>
24721373

> <OBJECTID>
9223372625268637710

> <PUBCHEM_COMPOUND_CID>
24721373

> <PUBCHEM_CONFORMER_RMSD>
1.2

> <PUBCHEM_CONFORMER_DIVERSEORDER>
1
76
87
20
32
79
25
72
24
68
42
61
14
64
73
34
54
18
60
36
12
74
19
88
80
62
7
78
56
38
6
67
29
45
70
53
44
52
82
50
37
40
69
39
31
47
57
5
75
27
8
83
86
48
35
10
23
15
33
30
66
46
11
2
59
22
63
81
49
3
17
65
71
41
13
84
26
85
21
9
51
77
58
55
43
4
28
16

> <PUBCHEM_MMFF94_PARTIAL_CHARGES>
41
1 -0.56
10 -0.68
11 -0.68
12 -0.68
13 -0.68
2 -0.43
20 0.42
22 0.14
24 0.06
27 -0.28
3 -0.57
32 0.66
33 -0.3
34 0.56
35 0.28
36 0.28
37 0.56
38 0.28
39 0.28
4 -0.56
40 0.28
41 0.28
42 0.28
43 0.28
44 0.28
45 0.28
5 -0.68
6 -0.56
7 -0.68
72 0.15
73 0.15
8 -0.68
81 0.4
85 0.4
88 0.4
89 0.4
9 -0.68
92 0.4
93 0.4
94 0.4
95 0.4

> <PUBCHEM_EFFECTIVE_ROTOR_COUNT>
11.4

> <PUBCHEM_PHARMACOPHORE_FEATURES>
25
1 1 acceptor
1 10 acceptor
1 10 donor
1 11 acceptor
1 11 donor
1 12 acceptor
1 12 donor
1 13 acceptor
1 13 donor
1 3 acceptor
1 4 acceptor
1 5 acceptor
1 5 donor
1 6 acceptor
1 7 acceptor
1 7 donor
1 8 acceptor
1 8 donor
1 9 acceptor
1 9 donor
6 14 15 16 17 19 23 rings
6 16 17 24 25 29 30 rings
6 4 34 35 36 38 39 rings
6 6 37 40 42 43 44 rings
8 14 15 18 20 21 22 26 27 rings

> <PUBCHEM_HEAVY_ATOM_COUNT>
45

> <PUBCHEM_ATOM_DEF_STEREO_COUNT>
16

> <PUBCHEM_ATOM_UDEF_STEREO_COUNT>
0

> <PUBCHEM_BOND_DEF_STEREO_COUNT>
0

> <PUBCHEM_BOND_UDEF_STEREO_COUNT>
0

> <PUBCHEM_ISOTOPIC_ATOM_COUNT>
0

> <PUBCHEM_COMPONENT_COUNT>
1

> <PUBCHEM_CACTVS_TAUTO_COUNT>
1

> <PUBCHEM_CONFORMER_ID>
017937DD00000001

> <PUBCHEM_MMFF94_ENERGY>
173.2642

> <PUBCHEM_FEATURE_SELFOVERLAP>
127.009

> <PUBCHEM_SHAPE_FINGERPRINT>
10439779 11 18336825269500896858
10673678 19 18131351929542170919
11456790 92 18042687208931111402
11513181 2 18201159970366606502
12422481 6 18118103996139133712
12786520 15 16660352714435717956
12925494 130 18335985362870689035
1361 2 18335424504503511969
14295345 954 18342459244876016914
14725015 67 18189611648983312628
15001296 14 18335416881115857409
15082195 135 17917152701901491438
15320291 9 18265049317796081021
15320467 1 18196937669126622345
15968369 153 18268438008912497247
16112460 7 18408605833668434628
19053607 189 18196644306128972744
20715895 44 18343581811345243714
20764821 26 16899891484866680832
21716022 299 14618549524641390855
22122407 14 18408891724161734683
23398203 216 18264510505948598049
2838139 119 18342174436794234007
3493558 16 18412268354049971686
4144715 1 18189345730774469290
508180 173 18265352620307799418
5109719 28 18337685105469772377
5223283 242 17627252064756198591
53794403 172 18409735062095933749
5776283 40 18339376201476391908
5951187 136 18341335504815900766
6036956 94 17542505385047502821
6086070 43 18334585603133918618
9961470 85 18409730690104290305

> <PUBCHEM_SHAPE_MULTIPOLES>
849.78
15.45
7.32
1.88
20.87
5.29
0.19
12.34
-0.71
-4.32
-1.2
-1.29
-0.39
0.28

> <PUBCHEM_SHAPE_SELFOVERLAP>
1817.854

> <PUBCHEM_SHAPE_VOLUME>
463.1

> <PUBCHEM_COORDINATE_TYPE>
2
5
10

$$$$
25001841
  SciTegic09112316443D

 71 73  0  0  1  0            999 V2000
   -2.0766   -1.6715   -0.9829 O   0  0
   -0.9242    2.7257    0.8008 O   0  0
   -0.8511   -3.2727    2.1066 O   0  0
    1.7875    3.0520   -1.6793 O   0  0
   -2.5836   -4.8466    0.6370 O   0  0
    0.9540    5.4575   -0.6035 O   0  0
   -4.5801   -1.8028    0.4927 O   0  0
   -2.3747    4.1433   -1.2846 O   0  0
   -1.5873    0.5554   -0.1042 O   0  0
    3.0186    1.5685    0.6613 O   0  0
    1.5909   -2.9848    0.3324 O   0  0
   -5.0796   -2.7244   -2.7080 O   0  0
   -2.5197    3.9246    2.9621 O   0  0
    3.9740   -1.8985    1.6718 O   0  0
   -1.1135   -2.2424   -0.0885 C   0  0  2  0  0  0
    0.3916    2.5575    0.2586 C   0  0  2  0  0  0
   -1.7809   -2.6258    1.2433 C   0  0  1  0  0  0
    0.4622    3.1365   -1.1647 C   0  0  1  0  0  0
   -2.9971   -3.5370    1.0261 C   0  0  1  0  0  0
   -0.0110    4.5962   -1.2070 C   0  0  1  0  0  0
   -3.9294   -2.9557   -0.0394 C   0  0  2  0  0  0
   -1.3559    4.7533   -0.4935 C   0  0  2  0  0  0
   -3.1513   -2.5604   -1.3060 C   0  0  1  0  0  0
   -1.3302    4.0951    0.8966 C   0  0  1  0  0  0
   -0.0075   -1.2242    0.1109 C   0  0
    0.7135    1.0756    0.2781 C   0  0
   -0.3032    0.1389    0.0932 C   0  0
    2.0262    0.6495    0.4807 C   0  0
    1.3051   -1.6504    0.3138 C   0  0
    2.3219   -0.7135    0.4986 C   0  0
   -4.0330   -1.8493   -2.3275 C   0  0
   -2.6987    4.1136    1.5700 C   0  0
    3.6949   -1.1591    0.7107 C   0  0
    4.7951   -0.7300   -0.2755 C   0  0
    5.9180   -1.7653   -0.4634 C   0  0
    5.3374   -3.0766   -0.9973 C   0  0
    6.9975   -1.2518   -1.4200 C   0  0
   -0.6937   -3.1296   -0.5797 H   0  0
    1.0751    3.0874    0.9332 H   0  0
   -2.1220   -1.7154    1.7530 H   0  0
   -0.1867    2.5460   -1.8249 H   0  0
   -3.5225   -3.6474    1.9825 H   0  0
   -0.0907    4.9045   -2.2565 H   0  0
   -4.7047   -3.6854   -0.3006 H   0  0
   -1.6099    5.8140   -0.3814 H   0  0
   -2.7345   -3.4644   -1.7695 H   0  0
   -0.6074    4.6151    1.5391 H   0  0
   -3.4474   -1.5853   -3.2150 H   0  0
   -4.4551   -0.9209   -1.9283 H   0  0
   -3.3451    3.3134    1.1951 H   0  0
   -3.1926    5.0801    1.4290 H   0  0
   -1.3176   -3.4877    2.9323 H   0  0
    1.7773    3.4214   -2.5787 H   0  0
   -3.3842   -5.3898    0.5389 H   0  0
    0.6216    6.3682   -0.6783 H   0  0
   -5.0863   -2.0859    1.2732 H   0  0
   -2.3909    4.5991   -2.1434 H   0  0
   -2.2146   -0.1685    0.0429 H   0  0
    4.3294   -0.5108   -1.2443 H   0  0
    5.2265    0.2026    0.1065 H   0  0
    2.8006    2.3918    0.1960 H   0  0
    2.5278   -3.1348    0.5336 H   0  0
    6.3877   -1.9677    0.5072 H   0  0
   -5.6211   -2.2544   -3.3647 H   0  0
   -3.4020    3.9435    3.3704 H   0  0
    4.7927   -2.9190   -1.9346 H   0  0
    6.1369   -3.8000   -1.1927 H   0  0
    4.6546   -3.5419   -0.2813 H   0  0
    6.5844   -1.0511   -2.4144 H   0  0
    7.8037   -1.9850   -1.5279 H   0  0
    7.4373   -0.3230   -1.0420 H   0  0
  1 15  1  0
  1 23  1  0
  2 16  1  0
  2 24  1  0
  3 17  1  0
  3 52  1  0
  4 18  1  0
  4 53  1  0
  5 19  1  0
  5 54  1  0
  6 20  1  0
  6 55  1  0
  7 21  1  0
  7 56  1  0
  8 22  1  0
  8 57  1  0
  9 27  1  0
  9 58  1  0
 10 28  1  0
 10 61  1  0
 11 29  1  0
 11 62  1  0
 12 31  1  0
 12 64  1  0
 13 32  1  0
 13 65  1  0
 14 33  2  0
 15 17  1  0
 15 25  1  0
 15 38  1  0
 16 18  1  0
 16 26  1  0
 16 39  1  0
 17 19  1  0
 17 40  1  0
 18 20  1  0
 18 41  1  0
 19 21  1  0
 19 42  1  0
 20 22  1  0
 20 43  1  0
 21 23  1  0
 21 44  1  0
 22 24  1  0
 22 45  1  0
 23 31  1  0
 23 46  1  0
 24 32  1  0
 24 47  1  0
 25 27  2  0
 25 29  1  0
 26 27  1  0
 26 28  2  0
 28 30  1  0
 29 30  2  0
 30 33  1  0
 31 48  1  0
 31 49  1  0
 32 50  1  0
 32 51  1  0
 33 34  1  0
 34 35  1  0
 34 59  1  0
 34 60  1  0
 35 36  1  0
 35 37  1  0
 35 63  1  0
 36 66  1  0
 36 67  1  0
 36 68  1  0
 37 69  1  0
 37 70  1  0
 37 71  1  0
M  END
> <Name>
25001841

> <OBJECTID>
9223372629563605006

> <PUBCHEM_COMPOUND_CID>
25001841

> <PUBCHEM_CONFORMER_RMSD>
1

> <PUBCHEM_CONFORMER_DIVERSEORDER>
2
26
37
29
59
53
33
41
47
46
61
48
65
36
49
51
23
57
54
24
31
42
30
55
40
21
60
28
62
45
17
52
64
20
43
32
10
63
16
35
22
3
50
19
58
38
34
27
56
13
39
12
18
1
25
44
4
14
11
7
8
15
6
5
9

> <PUBCHEM_MMFF94_PARTIAL_CHARGES>
45
1 -0.56
10 -0.53
11 -0.53
12 -0.68
13 -0.68
14 -0.57
15 0.42
16 0.42
17 0.28
18 0.28
19 0.28
2 -0.56
20 0.28
21 0.28
22 0.28
23 0.28
24 0.28
25 -0.14
26 -0.14
27 0.08
28 0.08
29 0.08
3 -0.68
30 0.09
31 0.28
32 0.28
33 0.42
34 0.06
4 -0.68
5 -0.68
52 0.4
53 0.4
54 0.4
55 0.4
56 0.4
57 0.4
58 0.45
6 -0.68
61 0.45
62 0.45
64 0.4
65 0.4
7 -0.68
8 -0.68
9 -0.53

> <PUBCHEM_EFFECTIVE_ROTOR_COUNT>
9.4

> <PUBCHEM_PHARMACOPHORE_FEATURES>
26
1 1 acceptor
1 10 donor
1 11 donor
1 12 acceptor
1 12 donor
1 13 acceptor
1 13 donor
1 14 acceptor
1 2 acceptor
1 3 acceptor
1 3 donor
1 4 acceptor
1 4 donor
1 5 acceptor
1 5 donor
1 6 acceptor
1 6 donor
1 7 acceptor
1 7 donor
1 8 acceptor
1 8 donor
1 9 donor
3 35 36 37 hydrophobe
6 1 15 17 19 21 23 rings
6 2 16 18 20 22 24 rings
6 25 26 27 28 29 30 rings

> <PUBCHEM_HEAVY_ATOM_COUNT>
37

> <PUBCHEM_ATOM_DEF_STEREO_COUNT>
9

> <PUBCHEM_ATOM_UDEF_STEREO_COUNT>
1

> <PUBCHEM_BOND_DEF_STEREO_COUNT>
0

> <PUBCHEM_BOND_UDEF_STEREO_COUNT>
0

> <PUBCHEM_ISOTOPIC_ATOM_COUNT>
0

> <PUBCHEM_COMPONENT_COUNT>
1

> <PUBCHEM_CACTVS_TAUTO_COUNT>
25

> <PUBCHEM_CONFORMER_ID>
017D7F7100000002

> <PUBCHEM_MMFF94_ENERGY>
118.4297

> <PUBCHEM_FEATURE_SELFOVERLAP>
132.006

> <PUBCHEM_SHAPE_FINGERPRINT>
10074138 170 17902478564124705578
10190206 1 18187940469684595718
10411042 1 18337115678273593466
10815517 723 18270408191820060545
1100329 8 18408887343527181497
11115154 58 17986647416809196069
11331351 85 18131355228166478035
11991303 11 18051143488461758998
12156800 1 17981641236392210429
12160290 23 18053637236509750506
12440605 4 18193582123169375712
12788726 201 18261104141463816818
131258 43 18197512920562056228
13140716 1 18337660997211678578
13540713 4 17916850341558662898
13690498 29 18271534122245654086
13757389 114 18124052134744113876
13911987 19 17760366596326135196
140371 6 18192153913614967400
14068700 686 18413392043283468654
14508225 48 18410853295981616142
14556957 393 18189638136800911238
14790565 3 17616537255355172418
14856354 85 16882489110912393224
14866123 147 18195530285769068930
15081414 286 18121499313356612738
15082195 135 17619604214451064863
15198563 99 18410014312833285548
15775530 1 18057018282405428400
15927050 60 17835519315242746434
16087824 20 18336831867293349785
17138139 8 17479686648015658845
20101258 96 18336000717652968602
21033648 29 16536785501230694225
21120745 212 18338248119499744636
21133410 32 15504651748410127538
22223350 30 18052802673557929258
23536364 44 18263066777976788559
23559900 14 18118673555187991083
24771750 20 17179412586644240380
255183 313 18125174731303803656
3178227 256 16970559807192203186
3388396 114 18046935898619083924
3610482 184 17753646493453456006
4353968 344 18338248129017835110
4461854 278 17980790163670628625
508180 173 18193247833617505687
5969126 39 18413670215087444070
613672 6 18266162002436596746
6669772 16 17405148426944051670
9658208 31 17911790285546234578

> <PUBCHEM_SHAPE_MULTIPOLES>
679.27
9.76
8.46
1.87
18.07
6.17
-0.14
-7.64
-3.43
-11.35
-0.35
-1.83
-0.15
-2.07

> <PUBCHEM_SHAPE_SELFOVERLAP>
1437.871

> <PUBCHEM_SHAPE_VOLUME>
374.9

> <PUBCHEM_COORDINATE_TYPE>
2
5
10

$$$$
25220884
  SciTegic09112316443D

 35 35  0  0  1  0            999 V2000
    1.0368    1.9040   -0.8226 O   0  0
   -2.0421   -2.3232    0.0004 O   0  0
    0.0530   -1.4112   -0.2778 N   0  0
   -1.0079    1.0116   -0.2566 N   0  0
    0.9761   -0.3459    0.0850 C   0  0  1  0  0  0
   -1.7303    0.0241    0.5318 C   0  0  1  0  0  0
    2.3582   -0.5913   -0.4986 C   0  0
   -3.2335    0.2223    0.4213 C   0  0
    3.4637    0.2584    0.1540 C   0  0
    0.3678    0.9554   -0.4200 C   0  0
   -1.2983   -1.3456    0.0263 C   0  0
   -3.6432    1.5909    0.9678 C   0  0
   -3.6971    0.0686   -1.0280 C   0  0
    3.5939   -0.0088    1.6541 C   0  0
    4.8028   -0.0092   -0.5371 C   0  0
    0.9882   -0.3173    1.1783 H   0  0
   -1.4021    0.1189    1.5743 H   0  0
    2.6216   -1.6512   -0.3785 H   0  0
    2.3447   -0.4059   -1.5810 H   0  0
   -3.7397   -0.5444    1.0223 H   0  0
    3.2450    1.3233    0.0224 H   0  0
    0.4276   -2.3125   -0.5589 H   0  0
   -1.4641    1.8788   -0.5205 H   0  0
   -3.2943    2.4191    0.3437 H   0  0
   -3.2582    1.7386    1.9824 H   0  0
   -4.7355    1.6642    1.0173 H   0  0
   -3.2424    0.8133   -1.6898 H   0  0
   -4.7828    0.2094   -1.0878 H   0  0
   -3.4884   -0.9217   -1.4407 H   0  0
    3.6974   -1.0793    1.8606 H   0  0
    2.7306    0.3683    2.2096 H   0  0
    4.4756    0.4976    2.0626 H   0  0
    5.1060   -1.0558   -0.4252 H   0  0
    5.5934    0.6193   -0.1132 H   0  0
    4.7395    0.2137   -1.6075 H   0  0
  1 10  2  0
  2 11  2  0
  3  5  1  0
  3 11  1  0
  3 22  1  0
  4  6  1  0
  4 10  1  0
  4 23  1  0
  5  7  1  0
  5 10  1  0
  5 16  1  0
  6  8  1  0
  6 11  1  0
  6 17  1  0
  7  9  1  0
  7 18  1  0
  7 19  1  0
  8 12  1  0
  8 13  1  0
  8 20  1  0
  9 14  1  0
  9 15  1  0
  9 21  1  0
 12 24  1  0
 12 25  1  0
 12 26  1  0
 13 27  1  0
 13 28  1  0
 13 29  1  0
 14 30  1  0
 14 31  1  0
 14 32  1  0
 15 33  1  0
 15 34  1  0
 15 35  1  0
M  END
> <Name>
25220884

> <OBJECTID>
9223372633858572302

> <PUBCHEM_COMPOUND_CID>
25220884

> <PUBCHEM_CONFORMER_RMSD>
0.6

> <PUBCHEM_CONFORMER_DIVERSEORDER>
1
7
10
5
13
8
14
4
16
6
9
18
11
12
2
17
3
15

> <PUBCHEM_MMFF94_PARTIAL_CHARGES>
10
1 -0.57
10 0.57
11 0.57
2 -0.57
22 0.37
23 0.37
3 -0.73
4 -0.73
5 0.36
6 0.36

> <PUBCHEM_EFFECTIVE_ROTOR_COUNT>
3.8

> <PUBCHEM_PHARMACOPHORE_FEATURES>
7
1 1 acceptor
1 2 acceptor
1 3 donor
1 4 donor
3 8 12 13 hydrophobe
3 9 14 15 hydrophobe
6 3 4 5 6 10 11 rings

> <PUBCHEM_HEAVY_ATOM_COUNT>
15

> <PUBCHEM_ATOM_DEF_STEREO_COUNT>
2

> <PUBCHEM_ATOM_UDEF_STEREO_COUNT>
0

> <PUBCHEM_BOND_DEF_STEREO_COUNT>
0

> <PUBCHEM_BOND_UDEF_STEREO_COUNT>
0

> <PUBCHEM_ISOTOPIC_ATOM_COUNT>
0

> <PUBCHEM_COMPONENT_COUNT>
1

> <PUBCHEM_CACTVS_TAUTO_COUNT>
4

> <PUBCHEM_CONFORMER_ID>
0180D71400000001

> <PUBCHEM_MMFF94_ENERGY>
42.5103

> <PUBCHEM_FEATURE_SELFOVERLAP>
35.529

> <PUBCHEM_SHAPE_FINGERPRINT>
10130415 120 18040155119371859660
11132069 177 18408879651071598416
11543360 7 15769761451622191885
12119455 92 17060053705778484804
12251169 10 18408610274669698505
124424 183 17312817165391468605
12500047 106 18130790053288076522
12932764 1 17603860131020819388
13140716 1 18263652916590268889
13380535 76 18413108351101391455
13583140 156 16950285122018692881
14144814 61 18335140877568317873
14178342 30 18411411847651792586
14911166 2 18408317791876366351
14993402 34 18408037411857846581
15209294 21 18058453110314060873
15375462 189 17675921006529851760
16945 1 18335143072475902213
18175812 5 18060137665502044326
18186145 218 17489305248337897368
18511873 20 18261114083959120009
19026448 4 16558746810631936996
200 152 16056878026816255702
20528008 55 18273491277979233746
20645477 70 15936958666083641370
21339142 149 17846493747268465763
21501502 16 18118692242611210445
22485316 2 15213019349393654816
22892500 29 17131829850862700392
23402539 116 18202278070053468269
23557571 272 17703518786783492831
23559900 14 18273501152752677622
2748010 2 18193282020718164695
4072396 5 18042107779082108105
69090 78 18130783456075891823
74978 22 18262237849325154437
90316 7 18114447990590066016

> <PUBCHEM_SHAPE_MULTIPOLES>
286.99
7.85
1.64
1.06
3.95
0.33
-0.23
-1.26
-0.63
-1.17
0.05
0.32
-0.2
-0.34

> <PUBCHEM_SHAPE_SELFOVERLAP>
569.173

> <PUBCHEM_SHAPE_VOLUME>
170

> <PUBCHEM_COORDINATE_TYPE>
2
5
10

$$$$
46173916
  SciTegic09112316442D

137144  0  0  1  0            999 V2000
    6.7449   -4.0053    0.0000 O   0  0
    8.6841   -4.3135    0.0000 O   0  0
    3.8788    3.8544    0.0000 O   0  0
    5.3814    4.7160    0.0000 O   0  0
    6.0010   -8.0045    0.0000 O   0  0
    2.8840    5.5894    0.0000 O   0  0
    3.8891    7.3185    0.0000 O   0  0
    5.8891    7.3125    0.0000 O   0  0
    4.2690   -8.0045    0.0000 O   0  0
    7.3865    6.4420    0.0000 O   0  0
    6.0010  -10.0045    0.0000 O   0  0
    4.3917    8.1830    0.0000 O   0  0
    4.2690  -11.0045    0.0000 O   0  0
    2.5369  -10.0045    0.0000 O   0  0
    6.8943    9.0416    0.0000 O   0  0
    2.5369   -7.0045    0.0000 O   0  0
    5.8995   10.7766    0.0000 O   0  0
    3.8995   10.7826    0.0000 O   0  0
    6.9358   -1.5360    0.0000 C   0  0  1  0  0  0
    5.9358   -1.5369    0.0000 C   0  0  2  0  0  0
    7.2413   -2.4820    0.0000 C   0  0  2  0  0  0
    5.4350   -0.6713    0.0000 C   0  0  1  0  0  0
    6.4371   -3.0663    0.0000 C   0  0  2  0  0  0
    5.9343    0.1952    0.0000 C   0  0  2  0  0  0
    5.6318   -2.4834    0.0000 C   0  0
    7.4350   -0.6696    0.0000 C   0  0
    8.0393   -3.0649    0.0000 C   0  0  1  0  0  0
    6.9343    0.1960    0.0000 C   0  0
    5.4266    1.1047    0.0000 C   0  0  2  0  0  0
    7.7331   -4.0045    0.0000 C   0  0  1  0  0  0
    7.9358   -1.5352    0.0000 C   0  0
    4.3935   -0.6883    0.0000 C   0  0
    4.3850    1.1118    0.0000 C   0  0
    5.9899    2.0320    0.0000 C   0  0
    3.8650    0.2093    0.0000 C   0  0
    8.9909   -2.7575    0.0000 C   0  0
    6.4266    1.0979    0.0000 C   0  0
    7.7331   -5.0045    0.0000 C   0  0
    3.8345    2.0468    0.0000 C   0  0
    5.4612    2.9795    0.0000 C   0  0
    4.3762    2.9869    0.0000 C   0  0  2  0  0  0
    6.8671   -5.5045    0.0000 C   0  0
    6.8671   -6.5045    0.0000 C   0  0  1  0  0  0
    4.3814    4.7189    0.0000 C   0  0  2  0  0  0
    6.0010   -7.0045    0.0000 C   0  0
    7.7331   -7.0045    0.0000 C   0  0
    3.8839    5.5865    0.0000 C   0  0  1  0  0  0
    4.3865    6.4510    0.0000 C   0  0  2  0  0  0
    5.8839    5.5805    0.0000 C   0  0  1  0  0  0
    5.3865    6.4480    0.0000 C   0  0  1  0  0  0
    5.1350   -8.5045    0.0000 C   0  0  2  0  0  0
    6.8839    5.5775    0.0000 C   0  0
    5.1350   -9.5045    0.0000 C   0  0  1  0  0  0
    5.3917    8.1800    0.0000 C   0  0  2  0  0  0
    4.2690  -10.0045    0.0000 C   0  0  2  0  0  0
    3.4030   -8.5045    0.0000 C   0  0  1  0  0  0
    3.4030   -9.5045    0.0000 C   0  0  1  0  0  0
    5.8943    9.0446    0.0000 C   0  0  1  0  0  0
    2.5369   -8.0045    0.0000 C   0  0
    5.3969    9.9121    0.0000 C   0  0  1  0  0  0
    3.8943    9.0505    0.0000 C   0  0  2  0  0  0
    4.3969    9.9151    0.0000 C   0  0  2  0  0  0
    2.8943    9.0535    0.0000 C   0  0
    5.0906   -1.6276    0.0000 H   0  0
    7.9301   -1.9839    0.0000 H   0  0
    5.0163   -1.4110    0.0000 H   0  0
    5.7505   -3.5674    0.0000 H   0  0
    6.3599   -0.5406    0.0000 H   0  0
    5.0647   -2.2328    0.0000 H   0  0
    5.3231   -3.0210    0.0000 H   0  0
    7.9103   -1.0677    0.0000 H   0  0
    7.9096   -0.2706    0.0000 H   0  0
    8.1376   -2.4528    0.0000 H   0  0
    7.5167    0.4086    0.0000 H   0  0
    6.8261    0.8065    0.0000 H   0  0
    7.9363   -2.1552    0.0000 H   0  0
    8.5558   -1.5346    0.0000 H   0  0
    7.9352   -0.9152    0.0000 H   0  0
    3.8133   -0.9068    0.0000 H   0  0
    4.5096   -1.2973    0.0000 H   0  0
    6.4569    1.6242    0.0000 H   0  0
    6.4716    2.4224    0.0000 H   0  0
    3.2450    0.2064    0.0000 H   0  0
    9.1814   -3.3475    0.0000 H   0  0
    9.5808   -2.5670    0.0000 H   0  0
    8.8003   -2.1676    0.0000 H   0  0
    6.4224    0.4779    0.0000 H   0  0
    7.0466    1.0936    0.0000 H   0  0
    6.4309    1.7179    0.0000 H   0  0
    7.9451   -5.5871    0.0000 H   0  0
    8.3437   -4.8968    0.0000 H   0  0
    3.3582    2.4437    0.0000 H   0  0
    3.3620    1.6454    0.0000 H   0  0
    6.0462    3.1845    0.0000 H   0  0
    5.3592    3.5910    0.0000 H   0  0
    3.7562    2.9876    0.0000 H   0  0
    8.8130   -4.9199    0.0000 H   0  0
    6.6550   -4.9219    0.0000 H   0  0
    6.2565   -5.6121    0.0000 H   0  0
    6.8671   -7.1245    0.0000 H   0  0
    3.7614    4.7208    0.0000 H   0  0
    5.7890   -6.4219    0.0000 H   0  0
    5.3905   -7.1121    0.0000 H   0  0
    7.4231   -7.5414    0.0000 H   0  0
    8.2700   -7.3145    0.0000 H   0  0
    8.0431   -6.4675    0.0000 H   0  0
    3.5756    6.1243    0.0000 H   0  0
    4.6981    6.9870    0.0000 H   0  0
    6.1923    5.0426    0.0000 H   0  0
    6.0065    6.4461    0.0000 H   0  0
    2.5724    5.0534    0.0000 H   0  0
    5.1350   -7.8845    0.0000 H   0  0
    6.7744    4.9672    0.0000 H   0  0
    7.4659    5.3637    0.0000 H   0  0
    3.2691    7.3204    0.0000 H   0  0
    5.1350  -10.1245    0.0000 H   0  0
    6.0117    8.1782    0.0000 H   0  0
    3.7320  -10.3145    0.0000 H   0  0
    3.4030   -7.8845    0.0000 H   0  0
    3.4030  -10.1245    0.0000 H   0  0
    8.0065    6.4402    0.0000 H   0  0
    6.2059    9.5806    0.0000 H   0  0
    6.5380   -9.6945    0.0000 H   0  0
    1.9264   -7.8968    0.0000 H   0  0
    2.3249   -8.5871    0.0000 H   0  0
    5.0885   10.4499    0.0000 H   0  0
    3.5827    8.5145    0.0000 H   0  0
    3.7320  -11.3145    0.0000 H   0  0
    3.7769    9.9169    0.0000 H   0  0
    2.0000   -9.6945    0.0000 H   0  0
    7.2059    9.5776    0.0000 H   0  0
    2.8962    9.6735    0.0000 H   0  0
    2.2743    9.0554    0.0000 H   0  0
    2.8925    8.4335    0.0000 H   0  0
    2.0000   -6.6945    0.0000 H   0  0
    5.5911   11.3145    0.0000 H   0  0
    3.2795   10.7844    0.0000 H   0  0
  1 23  1  0
  1 30  1  0
 30  2  1  6
  2 97  1  0
 41  3  1  1
 44  3  1  1
  4 44  1  0
  4 49  1  0
  5 45  1  0
 51  5  1  1
 47  6  1  6
  6111  1  0
 48  7  1  1
  7115  1  0
 50  8  1  6
 54  8  1  6
  9 51  1  0
  9 56  1  0
 10 52  1  0
 10121  1  0
 53 11  1  6
 11123  1  0
 12 54  1  0
 12 61  1  0
 55 13  1  1
 13128  1  0
 57 14  1  6
 14130  1  0
 58 15  1  1
 15131  1  0
 16 59  1  0
 16135  1  0
 60 17  1  1
 17136  1  0
 62 18  1  6
 18137  1  0
 19 20  1  0
 19 21  1  0
 19 26  1  0
 19 31  1  1
 20 22  1  0
 20 25  1  0
 20 64  1  6
 21 23  1  0
 21 27  1  0
 21 65  1  6
 22 24  1  0
 22 32  1  0
 22 66  1  1
 23 25  1  0
 23 67  1  6
 24 28  1  0
 24 29  1  0
 24 68  1  6
 25 69  1  0
 25 70  1  0
 26 28  1  0
 26 71  1  0
 26 72  1  0
 27 30  1  0
 27 36  1  6
 27 73  1  0
 28 74  1  0
 28 75  1  0
 29 33  1  0
 29 34  1  0
 29 37  1  1
 30 38  1  0
 31 76  1  0
 31 77  1  0
 31 78  1  0
 32 35  1  0
 32 79  1  0
 32 80  1  0
 33 35  2  0
 33 39  1  0
 34 40  1  0
 34 81  1  0
 34 82  1  0
 35 83  1  0
 36 84  1  0
 36 85  1  0
 36 86  1  0
 37 87  1  0
 37 88  1  0
 37 89  1  0
 38 42  1  0
 38 90  1  0
 38 91  1  0
 39 41  1  0
 39 92  1  0
 39 93  1  0
 40 41  1  0
 40 94  1  0
 40 95  1  0
 41 96  1  0
 42 43  1  0
 42 98  1  0
 42 99  1  0
 43 45  1  0
 43 46  1  6
 43100  1  0
 44 47  1  0
 44101  1  0
 45102  1  0
 45103  1  0
 46104  1  0
 46105  1  0
 46106  1  0
 47 48  1  0
 47107  1  0
 48 50  1  0
 48108  1  0
 49 50  1  0
 49 52  1  1
 49109  1  0
 50110  1  0
 51 53  1  0
 51112  1  0
 52113  1  0
 52114  1  0
 53 55  1  0
 53116  1  0
 54 58  1  0
 54117  1  0
 55 57  1  0
 55118  1  0
 56 57  1  0
 56 59  1  1
 56119  1  0
 57120  1  0
 58 60  1  0
 58122  1  0
 59124  1  0
 59125  1  0
 60 62  1  0
 60126  1  0
 61 62  1  0
 61 63  1  1
 61127  1  0
 62129  1  0
 63132  1  0
 63133  1  0
 63134  1  0
M  END
> <Name>
46173916

> <OBJECTID>
9223372638153539598

> <PUBCHEM_COMPOUND_CID>
46173916

> <PUBCHEM_COMPOUND_CANONICALIZED>
1

> <PUBCHEM_CACTVS_COMPLEXITY>
1610

> <PUBCHEM_CACTVS_HBOND_ACCEPTOR>
18

> <PUBCHEM_CACTVS_HBOND_DONOR>
11

> <PUBCHEM_CACTVS_ROTATABLE_BOND>
12

> <PUBCHEM_CACTVS_SUBSKEYS>
AAADcfB8PgAAAAAAAAAAAAAAAAAAAaIAAAA0aJECAAASAGCAAAAAGgAACAAADxSwgAMCCAAABgCAAiBCAAAAAAAgAAAACAAAAAgREAIAAQAiQAAFwAAPAAPA4PwPgAAAAAAAAADAAAQAACAAAYAADAAAAA==

> <PUBCHEM_IUPAC_OPENEYE_NAME>
(2S,3R,4R,5R,6S)-2-[(2R,3S,4R,5R,6R)-4,5-dihydroxy-2-(hydroxymethyl)-6-[[(1S,2S,4S,6R,7S,8R,9S,12S,13R,16S)-6-hydroxy-7,9,13-trimethyl-6-[(3S)-3-methyl-4-[(2R,3R,4S,5S,6R)-3,4,5-trihydroxy-6-(hydroxymethyl)tetrahydropyran-2-yl]oxy-butyl]-5-oxapentacyclo[10.8.0.02,9.04,8.013,18]icos-18-en-16-yl]oxy]tetrahydropyran-3-yl]oxy-6-methyl-tetrahydropyran-3,4,5-triol

> <PUBCHEM_IUPAC_CAS_NAME>
(2S,3R,4R,5R,6S)-2-[[(2R,3S,4R,5R,6R)-4,5-dihydroxy-2-(hydroxymethyl)-6-[[(1S,2S,4S,6R,7S,8R,9S,12S,13R,16S)-6-hydroxy-7,9,13-trimethyl-6-[(3S)-3-methyl-4-[[(2R,3R,4S,5S,6R)-3,4,5-trihydroxy-6-(hydroxymethyl)-2-oxanyl]oxy]butyl]-5-oxapentacyclo[10.8.0.02,9.04,8.013,18]eicos-18-en-16-yl]oxy]-3-oxanyl]oxy]-6-methyloxane-3,4,5-triol

> <PUBCHEM_IUPAC_NAME_MARKUP>
(2<I>S</I>,3<I>R</I>,4<I>R</I>,5<I>R</I>,6<I>S</I>)-2-[(2<I>R</I>,3<I>S</I>,4<I>R</I>,5<I>R</I>,6<I>R</I>)-4,5-dihydroxy-2-(hydroxymethyl)-6-[[(1<I>S</I>,2<I>S</I>,4<I>S</I>,6<I>R</I>,7<I>S</I>,8<I>R</I>,9<I>S</I>,12<I>S</I>,13<I>R</I>,16<I>S</I>)-6-hydroxy-7,9,13-trimethyl-6-[(3<I>S</I>)-3-methyl-4-[(2<I>R</I>,3<I>R</I>,4<I>S</I>,5<I>S</I>,6<I>R</I>)-3,4,5-trihydroxy-6-(hydroxymethyl)oxan-2-yl]oxybutyl]-5-oxapentacyclo[10.8.0.0<SUP>2,9</SUP>.0<SUP>4,8</SUP>.0<SUP>13,18</SUP>]icos-18-en-16-yl]oxy]oxan-3-yl]oxy-6-methyloxane-3,4,5-triol

> <PUBCHEM_IUPAC_NAME>
(2S,3R,4R,5R,6S)-2-[(2R,3S,4R,5R,6R)-4,5-dihydroxy-2-(hydroxymethyl)-6-[[(1S,2S,4S,6R,7S,8R,9S,12S,13R,16S)-6-hydroxy-7,9,13-trimethyl-6-[(3S)-3-methyl-4-[(2R,3R,4S,5S,6R)-3,4,5-trihydroxy-6-(hydroxymethyl)oxan-2-yl]oxybutyl]-5-oxapentacyclo[10.8.0.02,9.04,8.013,18]icos-18-en-16-yl]oxy]oxan-3-yl]oxy-6-methyloxane-3,4,5-triol

> <PUBCHEM_IUPAC_SYSTEMATIC_NAME>
(2S,3R,4R,5R,6S)-2-[(2R,3S,4R,5R,6R)-2-(hydroxymethyl)-6-[[(1S,2S,4S,6R,7S,8R,9S,12S,13R,16S)-6-[(3S)-4-[(2R,3R,4S,5S,6R)-6-(hydroxymethyl)-3,4,5-tris(oxidanyl)oxan-2-yl]oxy-3-methyl-butyl]-7,9,13-trimethyl-6-oxidanyl-5-oxapentacyclo[10.8.0.02,9.04,8.013,18]icos-18-en-16-yl]oxy]-4,5-bis(oxidanyl)oxan-3-yl]oxy-6-methyl-oxane-3,4,5-triol

> <PUBCHEM_IUPAC_TRADITIONAL_NAME>
(2S,3R,4R,5R,6S)-2-[(2R,3S,4R,5R,6R)-4,5-dihydroxy-6-[[(1S,2S,4S,6R,7S,8R,9S,12S,13R,16S)-6-hydroxy-7,9,13-trimethyl-6-[(3S)-3-methyl-4-[(2R,3R,4S,5S,6R)-3,4,5-trihydroxy-6-methylol-tetrahydropyran-2-yl]oxy-butyl]-5-oxapentacyclo[10.8.0.02,9.04,8.013,18]eicos-18-en-16-yl]oxy]-2-methylol-tetrahydropyran-3-yl]oxy-6-methyl-tetrahydropyran-3,4,5-triol

> <PUBCHEM_IUPAC_INCHI>
InChI=1S/C45H74O18/c1-19(18-57-40-36(53)34(51)32(49)28(16-46)60-40)8-13-45(56)20(2)30-27(63-45)15-26-24-7-6-22-14-23(9-11-43(22,4)25(24)10-12-44(26,30)5)59-42-38(55)35(52)39(29(17-47)61-42)62-41-37(54)33(50)31(48)21(3)58-41/h6,19-21,23-42,46-56H,7-18H2,1-5H3/t19-,20-,21-,23-,24+,25-,26-,27-,28+,29+,30-,31-,32+,33+,34-,35+,36+,37+,38+,39+,40+,41-,42+,43-,44-,45+/m0/s1

> <PUBCHEM_IUPAC_INCHIKEY>
RKFMVZQLJBGJKK-AAYAUBGESA-N

> <PUBCHEM_XLOGP3_AA>
-0.2

> <PUBCHEM_EXACT_MASS>
902.48751551

> <PUBCHEM_MOLECULAR_FORMULA>
C45H74O18

> <PUBCHEM_MOLECULAR_WEIGHT>
903.1

> <PUBCHEM_OPENEYE_CAN_SMILES>
CC1C2C(CC3C2(CCC4C3CC=C5C4(CCC(C5)OC6C(C(C(C(O6)CO)OC7C(C(C(C(O7)C)O)O)O)O)O)C)C)OC1(CCC(C)COC8C(C(C(C(O8)CO)O)O)O)O

> <PUBCHEM_OPENEYE_ISO_SMILES>
C[C@H]1[C@H]2[C@H](C[C@@H]3[C@@]2(CC[C@H]4[C@H]3CC=C5[C@@]4(CC[C@@H](C5)O[C@H]6[C@@H]([C@H]([C@@H]([C@H](O6)CO)O[C@H]7[C@@H]([C@@H]([C@H]([C@@H](O7)C)O)O)O)O)O)C)C)O[C@@]1(CC[C@H](C)CO[C@H]8[C@@H]([C@H]([C@@H]([C@H](O8)CO)O)O)O)O

> <PUBCHEM_CACTVS_TPSA>
287

> <PUBCHEM_MONOISOTOPIC_WEIGHT>
902.48751551

> <PUBCHEM_TOTAL_CHARGE>
0

> <PUBCHEM_HEAVY_ATOM_COUNT>
63

> <PUBCHEM_ATOM_DEF_STEREO_COUNT>
26

> <PUBCHEM_ATOM_UDEF_STEREO_COUNT>
0

> <PUBCHEM_BOND_DEF_STEREO_COUNT>
0

> <PUBCHEM_BOND_UDEF_STEREO_COUNT>
0

> <PUBCHEM_ISOTOPIC_ATOM_COUNT>
0

> <PUBCHEM_COMPONENT_COUNT>
1

> <PUBCHEM_CACTVS_TAUTO_COUNT>
-1

> <PUBCHEM_COORDINATE_TYPE>
1
5
255

> <PUBCHEM_BONDANNOTATIONS>
53  11  6
55  13  5
57  14  6
58  15  5
60  17  5
62  18  6
19  31  5
30  2  6
20  64  6
21  65  6
22  66  5
23  67  6
24  68  6
27  36  6
29  37  5
41  3  5
44  3  5
43  46  6
49  52  5
51  5  5
56  59  5
47  6  6
61  63  5
48  7  5
50  8  6
54  8  6

$$$$
46849638
  SciTegic09112316443D

 33 35  0  0  1  0            999 V2000
    1.0650    0.3355    1.0917 O   0  0
    0.7376   -1.0802   -0.8360 O   0  0
    3.5050   -0.6261   -1.2677 O   0  0
    4.7355    0.2600    1.0581 O   0  0
   -4.7608    1.8690    0.1454 O   0  0
   -1.6885   -0.0276   -0.1486 N   0  0
    0.7613    0.2612   -0.3115 C   0  0  2  0  0  0
    1.7955    1.0824   -1.1166 C   0  0
   -0.6289    0.8874   -0.5328 C   0  0
    3.2363    0.6885   -0.7830 C   0  0  1  0  0  0
    3.4345    0.7263    0.7299 C   0  0  1  0  0  0
    2.3754   -0.1131    1.4305 C   0  0
   -1.4909   -1.3744    0.0012 C   0  0
   -0.1408   -1.9739   -0.1381 C   0  0
   -3.0004    0.2908    0.0544 C   0  0
   -2.7144   -1.9321    0.3129 C   0  0
   -3.6662   -0.8806    0.3462 C   0  0
   -3.5551    1.6067   -0.0359 C   0  0
    1.6747    2.1480   -0.8826 H   0  0
    1.6205    0.9427   -2.1904 H   0  0
   -0.7357    1.8022    0.0594 H   0  0
   -0.8032    1.1030   -1.5938 H   0  0
    3.9486    1.3607   -1.2739 H   0  0
    3.3512    1.7676    1.0652 H   0  0
    2.4856   -1.1798    1.2025 H   0  0
    2.4892   -0.0245    2.5166 H   0  0
    0.2826   -2.2116    0.8431 H   0  0
   -0.1909   -2.9018   -0.7163 H   0  0
   -2.9004   -2.9803    0.5016 H   0  0
   -4.7221   -0.9762    0.5600 H   0  0
    3.3597   -0.6188   -2.2291 H   0  0
    4.8258    0.2991    2.0255 H   0  0
   -2.8714    2.4328   -0.2899 H   0  0
  1  7  1  0
  1 12  1  0
  2  7  1  0
  2 14  1  0
  3 10  1  0
  3 31  1  0
  4 11  1  0
  4 32  1  0
  5 18  2  0
  6  9  1  0
  6 13  1  0
  6 15  1  0
  7  8  1  0
  7  9  1  0
  8 10  1  0
  8 19  1  0
  8 20  1  0
  9 21  1  0
  9 22  1  0
 10 11  1  0
 10 23  1  0
 11 12  1  0
 11 24  1  0
 12 25  1  0
 12 26  1  0
 13 14  1  0
 13 16  2  0
 14 27  1  0
 14 28  1  0
 15 17  2  0
 15 18  1  0
 16 17  1  0
 16 29  1  0
 17 30  1  0
 18 33  1  0
M  END
> <Name>
46849638

> <OBJECTID>
9223372642448506894

> <PUBCHEM_COMPOUND_CID>
46849638

> <PUBCHEM_CONFORMER_RMSD>
0.6

> <PUBCHEM_CONFORMER_DIVERSEORDER>
1
2

> <PUBCHEM_MMFF94_PARTIAL_CHARGES>
22
1 -0.56
10 0.28
11 0.28
12 0.28
13 -0.33
14 0.46
15 -0.24
16 -0.15
17 -0.15
18 0.59
2 -0.56
29 0.15
3 -0.68
30 0.15
31 0.4
32 0.4
33 0.06
4 -0.68
5 -0.57
6 0.05
7 0.56
9 0.26

> <PUBCHEM_EFFECTIVE_ROTOR_COUNT>
2.6

> <PUBCHEM_PHARMACOPHORE_FEATURES>
11
1 1 acceptor
1 2 acceptor
1 3 acceptor
1 3 donor
1 4 acceptor
1 4 donor
1 5 acceptor
1 6 cation
5 6 13 15 16 17 rings
6 1 7 8 10 11 12 rings
6 2 6 7 9 13 14 rings

> <PUBCHEM_HEAVY_ATOM_COUNT>
18

> <PUBCHEM_ATOM_DEF_STEREO_COUNT>
3

> <PUBCHEM_ATOM_UDEF_STEREO_COUNT>
0

> <PUBCHEM_BOND_DEF_STEREO_COUNT>
0

> <PUBCHEM_BOND_UDEF_STEREO_COUNT>
0

> <PUBCHEM_ISOTOPIC_ATOM_COUNT>
0

> <PUBCHEM_COMPONENT_COUNT>
1

> <PUBCHEM_CACTVS_TAUTO_COUNT>
1

> <PUBCHEM_CONFORMER_ID>
02CADE6600000001

> <PUBCHEM_MMFF94_ENERGY>
38.1204

> <PUBCHEM_FEATURE_SELFOVERLAP>
55.962

> <PUBCHEM_SHAPE_FINGERPRINT>
10608611 8 18271527584471725709
10646746 165 18342737429222106720
11132069 177 18409731755155576213
12119455 92 16988839484398413444
12236239 1 17676483977462191560
12251169 10 18113051632265660137
12403259 415 18060147560531739661
124424 183 17489872622234123416
12500047 106 18272365390741171031
12670546 56 17968368039316719684
13134695 92 16128661842727893168
13140716 1 18334576892865959849
13221675 6 17749385992251348210
13544592 145 18272098141155107046
13581323 91 18339360889111041646
13583140 156 17060328673542307334
13675066 3 18272936046119083542
13760787 5 16370725945932073644
14144814 61 18040995176124910399
15219456 202 18131355206438356118
15375358 24 17846493751278603048
15375462 189 17168137931908414176
16752209 62 18337666524987724655
16945 1 18268148832726985447
1741750 31 18342181029647511361
1813 80 16588300528563390550
18186145 218 17346331417808812870
19026448 4 17989492939178259566
19026448 5 17676208013055115780
19049666 15 17917442981565933470
19422 9 17749670795848857802
200 152 15575261181905575298
20233049 118 18341609321849936128
20279233 1 17775567567469089686
20510252 161 18270688683127824201
20645477 56 18413673521774249417
20645477 70 16702310018364590300
212916 134 18341317925493113777
21639500 275 15338833230960406618
2255824 54 17168995654500257060
23402539 116 18272922834525510997
23402655 69 12895087205569271107
23463225 33 18186517726188985150
23493267 7 18260278446774805411
23557571 272 17989201590536101979
23559900 14 18272660017651339630
2748010 2 18339378361613209911
296302 2 14979964700217473746
474 4 16663752542307920140
495365 180 17560509599809360158
5104073 3 18114178683271542968
573450 72 18260540156069205923
58807428 26 18187927231661388115
633830 44 18202561761164719109
6430166 295 18409448068175665077
69090 78 17489586822289032967
7097593 13 17750219353272055082
7364860 26 18127130766821838527
77492 1 17603865649731989414
81228 2 17267493324610406839
90316 7 17821999904871741381

> <PUBCHEM_SHAPE_MULTIPOLES>
336.1
8
1.79
1.1
0.2
0.25
-0.09
-2.47
-1.4
-1.99
0.12
1.19
-0.02
-0.04

> <PUBCHEM_SHAPE_SELFOVERLAP>
725.333

> <PUBCHEM_SHAPE_VOLUME>
182.9

> <PUBCHEM_COORDINATE_TYPE>
2
5
10

$$$$
46849639
  SciTegic09112316443D

 33 35  0  0  1  0            999 V2000
   -1.3853    0.3389   -0.6080 O   0  0
   -0.6818   -1.7594    0.3070 O   0  0
   -3.5775   -1.5674    0.5081 O   0  0
   -2.6831    2.5594   -1.6802 O   0  0
    4.3912    1.9680    0.7903 O   0  0
    1.5474   -0.1870    0.1659 N   0  0
   -0.8763   -0.3536    0.5467 C   0  0  2  0  0  0
   -1.9578   -0.1991    1.6158 C   0  0
   -3.2283   -0.2154    0.7932 C   0  0  1  0  0  0
   -2.8127    0.4923   -0.4894 C   0  0  1  0  0  0
    0.4483    0.2658    1.0005 C   0  0
    1.4615   -1.2842   -0.6512 C   0  0
    0.1909   -2.0391   -0.7957 C   0  0
   -3.1106    1.9850   -0.4575 C   0  0
    2.7998    0.3536    0.1128 C   0  0
    2.6968   -1.4453   -1.2456 C   0  0
    3.5403   -0.4117   -0.7628 C   0  0
    3.2371    1.4994    0.8501 C   0  0
   -1.8682    0.7718    2.1174 H   0  0
   -1.9245   -0.9986    2.3629 H   0  0
   -4.0765    0.2477    1.3056 H   0  0
   -3.2580    0.0386   -1.3820 H   0  0
    0.4030    1.3580    0.9420 H   0  0
    0.7034   -0.0498    2.0188 H   0  0
   -0.3145   -1.7818   -1.7327 H   0  0
    0.3820   -3.1167   -0.7991 H   0  0
   -2.5663    2.4830    0.3516 H   0  0
   -4.1831    2.1679   -0.3394 H   0  0
   -4.3650   -1.5495   -0.0622 H   0  0
    2.9603   -2.2189   -1.9535 H   0  0
    4.5760   -0.2504   -1.0298 H   0  0
   -2.8856    3.5095   -1.6369 H   0  0
    2.5064    1.9874    1.5152 H   0  0
  1  7  1  0
  1 10  1  0
  2  7  1  0
  2 13  1  0
  3  9  1  0
  3 29  1  0
  4 14  1  0
  4 32  1  0
  5 18  2  0
  6 11  1  0
  6 12  1  0
  6 15  1  0
  7  8  1  0
  7 11  1  0
  8  9  1  0
  8 19  1  0
  8 20  1  0
  9 10  1  0
  9 21  1  0
 10 14  1  0
 10 22  1  0
 11 23  1  0
 11 24  1  0
 12 13  1  0
 12 16  2  0
 13 25  1  0
 13 26  1  0
 14 27  1  0
 14 28  1  0
 15 17  2  0
 15 18  1  0
 16 17  1  0
 16 30  1  0
 17 31  1  0
 18 33  1  0
M  END
> <Name>
46849639

> <OBJECTID>
9223372646743474190

> <PUBCHEM_COMPOUND_CID>
46849639

> <PUBCHEM_CONFORMER_RMSD>
0.6

> <PUBCHEM_CONFORMER_DIVERSEORDER>
1
8
4
5
7
3
6
2

> <PUBCHEM_MMFF94_PARTIAL_CHARGES>
22
1 -0.56
10 0.28
11 0.26
12 -0.33
13 0.46
14 0.28
15 -0.24
16 -0.15
17 -0.15
18 0.59
2 -0.56
29 0.4
3 -0.68
30 0.15
31 0.15
32 0.4
33 0.06
4 -0.68
5 -0.57
6 0.05
7 0.56
9 0.28

> <PUBCHEM_EFFECTIVE_ROTOR_COUNT>
3.4

> <PUBCHEM_PHARMACOPHORE_FEATURES>
11
1 1 acceptor
1 2 acceptor
1 3 acceptor
1 3 donor
1 4 acceptor
1 4 donor
1 5 acceptor
1 6 cation
5 1 7 8 9 10 rings
5 6 12 15 16 17 rings
6 2 6 7 11 12 13 rings

> <PUBCHEM_HEAVY_ATOM_COUNT>
18

> <PUBCHEM_ATOM_DEF_STEREO_COUNT>
3

> <PUBCHEM_ATOM_UDEF_STEREO_COUNT>
0

> <PUBCHEM_BOND_DEF_STEREO_COUNT>
0

> <PUBCHEM_BOND_UDEF_STEREO_COUNT>
0

> <PUBCHEM_ISOTOPIC_ATOM_COUNT>
0

> <PUBCHEM_COMPONENT_COUNT>
1

> <PUBCHEM_CACTVS_TAUTO_COUNT>
1

> <PUBCHEM_CONFORMER_ID>
02CADE6700000001

> <PUBCHEM_MMFF94_ENERGY>
36.7635

> <PUBCHEM_FEATURE_SELFOVERLAP>
55.969

> <PUBCHEM_SHAPE_FINGERPRINT>
10498660 4 18115298961214050341
10608611 8 18411420591983108676
10646746 165 18260546684720357860
10871710 139 16823903149697473636
11132069 177 18337116764799501427
11715629 250 18410009931396729045
11759241 127 18339077223811754301
12403259 415 18412552002602088880
12403814 3 18339076120247842915
12730499 353 18266182726006597497
12932764 1 18262811678420518419
13134695 92 17912926085258041206
13294875 104 17318722470213343507
13464514 151 17905890266821960997
13571099 52 18188485774745975343
13583140 156 18261104180165592538
13764800 53 17750529377302706521
14250199 8 17774729649467158692
14289901 80 17749119901889865450
15219456 202 18413110554218692922
15279308 16 18334852814133101497
15342168 16 18129113375217651153
16945 1 17749403593053909091
17357990 137 15936987227278360766
18186145 218 18130515149600642858
18219364 16 18343866649228385632
19422 9 16773809064595629699
200 152 17060053679686959863
20645477 56 18262524684895992449
20645477 70 17775005635285923814
21486144 27 18202013152375838354
21524375 3 18128253583374269946
21639500 275 17775280569317521264
22802520 49 18195532488928691629
23402539 116 18114733962587309787
23419403 2 16466653658125751466
23493267 7 17749684986552633802
23557571 272 18115041752786185199
23559900 14 17968384442182178950
25 1 18196659484020338319
2748010 2 18412270505849692524
3082319 5 15841548561388610084
6049 1 18337968795678864604
621550 34 18340778104144588675
633830 44 17417827101175184720
77492 1 16200155352445167562
7808743 9 17532667736338051788
90316 7 16226040068071361157
9925002 15 17762339514974404799

> <PUBCHEM_SHAPE_MULTIPOLES>
336.1
7
2.2
1.31
1.57
0.45
-0.09
2.91
-0.17
0.16
-0.57
-0.56
0.33
2.02

> <PUBCHEM_SHAPE_SELFOVERLAP>
726.164

> <PUBCHEM_SHAPE_VOLUME>
184.8

> <PUBCHEM_COORDINATE_TYPE>
2
5
10

$$$$
56929107
  SciTegic09112316443D

 37 38  0  0  1  0            999 V2000
    2.0812   -2.4089    0.4623 O   0  0
    1.3760    2.8380    0.4588 O   0  0
   -5.7436   -1.1696   -0.8635 O   0  0
    2.6755    1.0045   -0.0392 N   0  0
    0.6909   -0.5878    0.6828 N   0  0
    2.7281   -0.3319   -0.6135 C   0  0  1  0  0  0
    4.1571   -0.8449   -0.6871 C   0  0
    0.2738    0.6989    0.1452 C   0  0  1  0  0  0
    1.8487   -1.2203    0.2560 C   0  0
   -0.9356    1.2417    0.8893 C   0  0
    1.4731    1.6309    0.2515 C   0  0
    5.0084    0.0454   -1.5938 C   0  0
    4.7770   -0.9292    0.7084 C   0  0
   -2.2162    0.6001    0.4225 C   0  0
   -2.9366    1.1649   -0.6300 C   0  0
   -2.6814   -0.5594    1.0428 C   0  0
   -4.1222    0.5705   -1.0620 C   0  0
   -3.8669   -1.1539    0.6111 C   0  0
   -4.5874   -0.5890   -0.4414 C   0  0
    2.2794   -0.2873   -1.6137 H   0  0
    4.1521   -1.8548   -1.1174 H   0  0
    0.0608    0.5642   -0.9232 H   0  0
    3.5054    1.5885   -0.0426 H   0  0
   -1.0331    2.3255    0.7435 H   0  0
   -0.8250    1.1078    1.9739 H   0  0
    0.0304   -1.1408    1.2193 H   0  0
    5.9911   -0.4122   -1.7547 H   0  0
    4.5388    0.1674   -2.5757 H   0  0
    5.1831    1.0391   -1.1704 H   0  0
    4.2414   -1.6114    1.3735 H   0  0
    5.8043   -1.3055    0.6366 H   0  0
    4.8297    0.0488    1.1984 H   0  0
   -2.5834    2.0666   -1.1232 H   0  0
   -2.1373   -1.0064    1.8702 H   0  0
   -4.6786    1.0146   -1.8828 H   0  0
   -4.2196   -2.0559    1.1040 H   0  0
   -5.9141   -1.9608   -0.3241 H   0  0
  1  9  2  0
  2 11  2  0
  3 19  1  0
  3 37  1  0
  4  6  1  0
  4 11  1  0
  4 23  1  0
  5  8  1  0
  5  9  1  0
  5 26  1  0
  6  7  1  0
  6  9  1  0
  6 20  1  0
  7 12  1  0
  7 13  1  0
  7 21  1  0
  8 10  1  0
  8 11  1  0
  8 22  1  0
 10 14  1  0
 10 24  1  0
 10 25  1  0
 12 27  1  0
 12 28  1  0
 12 29  1  0
 13 30  1  0
 13 31  1  0
 13 32  1  0
 14 15  2  0
 14 16  1  0
 15 17  1  0
 15 33  1  0
 16 18  2  0
 16 34  1  0
 17 19  2  0
 17 35  1  0
 18 19  1  0
 18 36  1  0
M  END
> <Name>
56929107

> <OBJECTID>
9223372651038441486

> <PUBCHEM_COMPOUND_CID>
56929107

> <PUBCHEM_CONFORMER_RMSD>
0.6

> <PUBCHEM_CONFORMER_DIVERSEORDER>
1
15
8
12
17
21
19
11
3
14
6
9
24
20
23
22
4
10
2
16
5
13
7
18
25

> <PUBCHEM_MMFF94_PARTIAL_CHARGES>
23
1 -0.57
10 0.14
11 0.57
14 -0.14
15 -0.15
16 -0.15
17 -0.15
18 -0.15
19 0.08
2 -0.57
23 0.37
26 0.37
3 -0.53
33 0.15
34 0.15
35 0.15
36 0.15
37 0.45
4 -0.73
5 -0.73
6 0.36
8 0.36
9 0.57

> <PUBCHEM_EFFECTIVE_ROTOR_COUNT>
3.8

> <PUBCHEM_PHARMACOPHORE_FEATURES>
8
1 1 acceptor
1 2 acceptor
1 3 donor
1 4 donor
1 5 donor
3 7 12 13 hydrophobe
6 14 15 16 17 18 19 rings
6 4 5 6 8 9 11 rings

> <PUBCHEM_HEAVY_ATOM_COUNT>
19

> <PUBCHEM_ATOM_DEF_STEREO_COUNT>
2

> <PUBCHEM_ATOM_UDEF_STEREO_COUNT>
0

> <PUBCHEM_BOND_DEF_STEREO_COUNT>
0

> <PUBCHEM_BOND_UDEF_STEREO_COUNT>
0

> <PUBCHEM_ISOTOPIC_ATOM_COUNT>
0

> <PUBCHEM_COMPONENT_COUNT>
1

> <PUBCHEM_CACTVS_TAUTO_COUNT>
18

> <PUBCHEM_CONFORMER_ID>
0364AB5300000001

> <PUBCHEM_MMFF94_ENERGY>
58.6217

> <PUBCHEM_FEATURE_SELFOVERLAP>
40.605

> <PUBCHEM_SHAPE_FINGERPRINT>
10366900 7 18187366545197643587
10498660 4 16515951589560626901
11089746 13 13334734678161995062
11806522 49 18343022181564773816
12236239 1 17275108353550015097
12251169 10 11095879363351993233
12553582 1 18340217301310526563
12596602 18 14979954787538969511
12670546 177 17821451256974266677
13464513 79 18131633391691638198
13862211 1 18411699851458626458
14252887 29 17632580418568303902
14350574 20 18409172142744944331
14576447 43 18413388722255468342
15188451 53 14404888246756072013
1813 80 17417826027650138932
18186145 218 18186513320190998953
18222031 100 18202848742822012564
193927 3 17989218048333679263
19433438 38 18040996211401991311
19784866 170 10231758898316085467
19784866 240 17704357684491284261
200 152 18273213097442873273
20374829 77 18409725154144088157
20645477 70 18272368710914460365
20671657 53 18413673491377253473
20871999 31 17967534558511845253
21256008 61 18342738511680348776
21475661 188 14202540783483425478
221357 26 18408599258658950037
221490 88 18265058109545981307
22646028 28 17989207044912309831
231179 274 11891333149241733068
23402539 116 18201443519648450688
23402655 69 18188208689495042125
23559900 14 18261948661004333681
23596394 208 18260257560317066389
2838139 119 15864651573369378430
2871803 45 18408040719082923627
312423 11 17917723430293848345
3472631 163 14996283639244690383
351380 3 17988924470455945111
42630746 31 18200306740748151376
465052 167 17631170965332315751
4921388 177 16298400067089133627
7970288 3 17917714578081610127
9709674 26 18190176987376329067

> <PUBCHEM_SHAPE_MULTIPOLES>
363.44
11.17
1.94
1.12
2.64
0.51
0.2
-4.21
4
-0.58
-0.39
-0.13
-0.01
-0.05

> <PUBCHEM_SHAPE_SELFOVERLAP>
763.2

> <PUBCHEM_SHAPE_VOLUME>
203.4

> <PUBCHEM_COORDINATE_TYPE>
2
5
10

$$$$
56968444
  SciTegic09112316442D

 60 59  0  0  1  0            999 V2000
    7.1962   -1.0950    0.0000 O   0  0
    5.4641   -1.0950    0.0000 O   0  0
    3.7320   -0.0950    0.0000 O   0  0
    2.8660    1.4050    0.0000 O   0  0
   10.6603   -0.0950    0.0000 C   0  0
    9.7942    0.4050    0.0000 C   0  0
   11.5263    0.4050    0.0000 C   0  0
    8.9282   -0.0950    0.0000 C   0  0
   12.3923   -0.0950    0.0000 C   0  0
    8.0622    0.4050    0.0000 C   0  0
   13.2583    0.4050    0.0000 C   0  0
    7.1962   -0.0950    0.0000 C   0  0
    6.3301    0.4050    0.0000 C   0  0
    5.4641   -0.0950    0.0000 C   0  0
   14.1244   -0.0950    0.0000 C   0  0
   16.7224    0.4050    0.0000 C   0  0
   15.8564   -0.0950    0.0000 C   0  0
   17.5885   -0.0950    0.0000 C   0  0
   14.9904    0.4050    0.0000 C   0  0
   18.4545    0.4050    0.0000 C   0  0
    4.5981    0.4050    0.0000 C   0  0
   19.3205   -0.0950    0.0000 C   0  0
    2.8660    0.4050    0.0000 C   0  0
    2.0000   -0.0950    0.0000 C   0  0
   10.2617   -0.5699    0.0000 H   0  0
   11.0588   -0.5699    0.0000 H   0  0
   10.1928    0.8799    0.0000 H   0  0
    9.3957    0.8799    0.0000 H   0  0
   11.9248    0.8799    0.0000 H   0  0
   11.1278    0.8799    0.0000 H   0  0
    8.5297   -0.5699    0.0000 H   0  0
    9.3267   -0.5699    0.0000 H   0  0
   11.9938   -0.5699    0.0000 H   0  0
   12.7908   -0.5699    0.0000 H   0  0
    8.4607    0.8799    0.0000 H   0  0
    7.6636    0.8799    0.0000 H   0  0
   13.6569    0.8799    0.0000 H   0  0
   12.8598    0.8799    0.0000 H   0  0
    6.7287    0.8799    0.0000 H   0  0
    5.9316    0.8799    0.0000 H   0  0
    6.0010   -0.4050    0.0000 H   0  0
   14.1244   -0.7150    0.0000 H   0  0
   17.1210    0.8799    0.0000 H   0  0
   16.3239    0.8799    0.0000 H   0  0
   15.4579   -0.5699    0.0000 H   0  0
   16.2549   -0.5699    0.0000 H   0  0
   17.1899   -0.5699    0.0000 H   0  0
   17.9870   -0.5699    0.0000 H   0  0
   14.9904    1.0250    0.0000 H   0  0
   18.8530    0.8799    0.0000 H   0  0
   18.0560    0.8799    0.0000 H   0  0
    4.9966    0.8799    0.0000 H   0  0
    4.1996    0.8799    0.0000 H   0  0
   19.0105   -0.6319    0.0000 H   0  0
   19.8574   -0.4050    0.0000 H   0  0
   19.6305    0.4419    0.0000 H   0  0
    4.9272   -1.4050    0.0000 H   0  0
    1.6900    0.4419    0.0000 H   0  0
    1.4631   -0.4050    0.0000 H   0  0
    2.3100   -0.6319    0.0000 H   0  0
  1 12  2  0
  2 14  1  0
  2 57  1  0
  3 21  1  0
  3 23  1  0
  4 23  2  0
  5  6  1  0
  5  7  1  0
  5 25  1  0
  5 26  1  0
  6  8  1  0
  6 27  1  0
  6 28  1  0
  7  9  1  0
  7 29  1  0
  7 30  1  0
  8 10  1  0
  8 31  1  0
  8 32  1  0
  9 11  1  0
  9 33  1  0
  9 34  1  0
 10 12  1  0
 10 35  1  0
 10 36  1  0
 11 15  1  0
 11 37  1  0
 11 38  1  0
 12 13  1  0
 13 14  1  0
 13 39  1  0
 13 40  1  0
 14 21  1  0
 14 41  1  0
 15 19  2  0
 15 42  1  0
 16 17  1  0
 16 18  1  0
 16 43  1  0
 16 44  1  0
 17 19  1  0
 17 45  1  0
 17 46  1  0
 18 20  1  0
 18 47  1  0
 18 48  1  0
 19 49  1  0
 20 22  1  0
 20 50  1  0
 20 51  1  0
 21 52  1  0
 21 53  1  0
 22 54  1  0
 22 55  1  0
 22 56  1  0
 23 24  1  0
 24 58  1  0
 24 59  1  0
 24 60  1  0
M  END
> <Name>
56968444

> <OBJECTID>
9223372655333408782

> <PUBCHEM_COMPOUND_CID>
56968444

> <PUBCHEM_COMPOUND_CANONICALIZED>
1

> <PUBCHEM_CACTVS_COMPLEXITY>
350

> <PUBCHEM_CACTVS_HBOND_ACCEPTOR>
4

> <PUBCHEM_CACTVS_HBOND_DONOR>
1

> <PUBCHEM_CACTVS_ROTATABLE_BOND>
17

> <PUBCHEM_CACTVS_SUBSKEYS>
AAADcfB4OAAAAAAAAAAAAAAAAAAAAAAAAAAAAAAAAAAAAAAAAAAAGgAACAAACBSggAICCAAABgCIAKDSCAAAAAAgAAAICAEAAAgBEBYAAQACQAAEoAALAAOKyKCAAAAAAAAAAAAAAAAAAAAAAAAAAAAAAA==

> <PUBCHEM_IUPAC_OPENEYE_NAME>
[(E)-2-hydroxy-4-oxo-octadec-12-enyl] acetate

> <PUBCHEM_IUPAC_CAS_NAME>
acetic acid [(E)-2-hydroxy-4-oxooctadec-12-enyl] ester

> <PUBCHEM_IUPAC_NAME_MARKUP>
[(<I>E</I>)-2-hydroxy-4-oxooctadec-12-enyl] acetate

> <PUBCHEM_IUPAC_NAME>
[(E)-2-hydroxy-4-oxooctadec-12-enyl] acetate

> <PUBCHEM_IUPAC_SYSTEMATIC_NAME>
[(E)-2-oxidanyl-4-oxidanylidene-octadec-12-enyl] ethanoate

> <PUBCHEM_IUPAC_TRADITIONAL_NAME>
acetic acid [(E)-2-hydroxy-4-keto-octadec-12-enyl] ester

> <PUBCHEM_IUPAC_INCHI>
InChI=1S/C20H36O4/c1-3-4-5-6-7-8-9-10-11-12-13-14-15-19(22)16-20(23)17-24-18(2)21/h7-8,20,23H,3-6,9-17H2,1-2H3/b8-7+

> <PUBCHEM_IUPAC_INCHIKEY>
JTKQJCKMDVTZDT-BQYQJAHWSA-N

> <PUBCHEM_XLOGP3_AA>
5

> <PUBCHEM_EXACT_MASS>
340.26135963

> <PUBCHEM_MOLECULAR_FORMULA>
C20H36O4

> <PUBCHEM_MOLECULAR_WEIGHT>
340.5

> <PUBCHEM_OPENEYE_CAN_SMILES>
CCCCCC=CCCCCCCCC(=O)CC(COC(=O)C)O

> <PUBCHEM_OPENEYE_ISO_SMILES>
CCCCC/C=C/CCCCCCCC(=O)CC(COC(=O)C)O

> <PUBCHEM_CACTVS_TPSA>
63.6

> <PUBCHEM_MONOISOTOPIC_WEIGHT>
340.26135963

> <PUBCHEM_TOTAL_CHARGE>
0

> <PUBCHEM_HEAVY_ATOM_COUNT>
24

> <PUBCHEM_ATOM_DEF_STEREO_COUNT>
0

> <PUBCHEM_ATOM_UDEF_STEREO_COUNT>
1

> <PUBCHEM_BOND_DEF_STEREO_COUNT>
1

> <PUBCHEM_BOND_UDEF_STEREO_COUNT>
0

> <PUBCHEM_ISOTOPIC_ATOM_COUNT>
0

> <PUBCHEM_COMPONENT_COUNT>
1

> <PUBCHEM_CACTVS_TAUTO_COUNT>
-1

> <PUBCHEM_COORDINATE_TYPE>
1
5
255

> <PUBCHEM_BONDANNOTATIONS>
14  2  3

$$$$
57387219
  SciTegic09112316443D

 33 35  0  0  1  0            999 V2000
   -1.3125   -0.1510    0.6590 O   0  0
   -0.6358   -0.5039   -1.6105 O   0  0
   -4.1600    1.7107   -0.4227 O   0  0
   -3.0603   -1.6691    2.2514 O   0  0
    4.5745    1.5882    1.2800 O   0  0
    1.6371    0.0807   -0.2103 N   0  0
   -0.7709    0.4454   -0.5371 C   0  0  1  0  0  0
   -1.8018    1.4857   -0.9624 C   0  0
   -3.0950    0.7968   -0.5861 C   0  0  1  0  0  0
   -2.7174    0.1439    0.7340 C   0  0  1  0  0  0
    0.5891    1.0856   -0.2520 C   0  0
    1.4812   -1.1830   -0.7179 C   0  0
    0.1815   -1.6341   -1.2770 C   0  0
   -3.4897   -1.1342    1.0102 C   0  0
    2.9040    0.2523    0.2688 C   0  0
    2.6852   -1.8378   -0.5532 C   0  0
    3.5819   -0.9315    0.0691 C   0  0
    3.4091    1.4551    0.8566 C   0  0
   -1.7650    1.7325   -2.0283 H   0  0
   -1.6994    2.4191   -0.3944 H   0  0
   -3.3730    0.0521   -1.3414 H   0  0
   -2.8509    0.8360    1.5749 H   0  0
    0.5764    1.6059    0.7111 H   0  0
    0.8762    1.7764   -1.0532 H   0  0
    0.3365   -2.2103   -2.1945 H   0  0
   -0.3533   -2.2704   -0.5637 H   0  0
   -3.2900   -1.8859    0.2394 H   0  0
   -4.5658   -0.9420    1.0602 H   0  0
   -4.2789    2.1741   -1.2692 H   0  0
    2.8935   -2.8580   -0.8443 H   0  0
    4.6107   -1.1288    0.3386 H   0  0
   -3.5677   -2.4847    2.4025 H   0  0
    2.7231    2.3146    0.9292 H   0  0
  1  7  1  0
  1 10  1  0
  2  7  1  0
  2 13  1  0
  3  9  1  0
  3 29  1  0
  4 14  1  0
  4 32  1  0
  5 18  2  0
  6 11  1  0
  6 12  1  0
  6 15  1  0
  7  8  1  0
  7 11  1  0
  8  9  1  0
  8 19  1  0
  8 20  1  0
  9 10  1  0
  9 21  1  0
 10 14  1  0
 10 22  1  0
 11 23  1  0
 11 24  1  0
 12 13  1  0
 12 16  2  0
 13 25  1  0
 13 26  1  0
 14 27  1  0
 14 28  1  0
 15 17  2  0
 15 18  1  0
 16 17  1  0
 16 30  1  0
 17 31  1  0
 18 33  1  0
M  END
> <Name>
57387219

> <OBJECTID>
9223372659628376078

> <PUBCHEM_COMPOUND_CID>
57387219

> <PUBCHEM_CONFORMER_RMSD>
0.6

> <PUBCHEM_CONFORMER_DIVERSEORDER>
1
7
12
6
10
5
3
8
11
4
9
2

> <PUBCHEM_MMFF94_PARTIAL_CHARGES>
22
1 -0.56
10 0.28
11 0.26
12 -0.33
13 0.46
14 0.28
15 -0.24
16 -0.15
17 -0.15
18 0.59
2 -0.56
29 0.4
3 -0.68
30 0.15
31 0.15
32 0.4
33 0.06
4 -0.68
5 -0.57
6 0.05
7 0.56
9 0.28

> <PUBCHEM_EFFECTIVE_ROTOR_COUNT>
3.4

> <PUBCHEM_PHARMACOPHORE_FEATURES>
11
1 1 acceptor
1 2 acceptor
1 3 acceptor
1 3 donor
1 4 acceptor
1 4 donor
1 5 acceptor
1 6 cation
5 1 7 8 9 10 rings
5 6 12 15 16 17 rings
6 2 6 7 11 12 13 rings

> <PUBCHEM_HEAVY_ATOM_COUNT>
18

> <PUBCHEM_ATOM_DEF_STEREO_COUNT>
3

> <PUBCHEM_ATOM_UDEF_STEREO_COUNT>
0

> <PUBCHEM_BOND_DEF_STEREO_COUNT>
0

> <PUBCHEM_BOND_UDEF_STEREO_COUNT>
0

> <PUBCHEM_ISOTOPIC_ATOM_COUNT>
0

> <PUBCHEM_COMPONENT_COUNT>
1

> <PUBCHEM_CACTVS_TAUTO_COUNT>
1

> <PUBCHEM_CONFORMER_ID>
036BA8D300000001

> <PUBCHEM_MMFF94_ENERGY>
37.2043

> <PUBCHEM_FEATURE_SELFOVERLAP>
55.967

> <PUBCHEM_SHAPE_FINGERPRINT>
10366900 7 18265618688661624542
10608611 8 18339918195514651820
10610426 29 15719948171667335759
11471102 22 18272097049848363134
11615757 297 17346596369946076391
12236239 1 16343411821944985748
12346177 29 17458343040024000511
12390115 104 17556859453961897616
12403259 118 18189323723198416396
12491281 212 14979962479513698895
12500047 106 17823422600061524391
12507560 40 18411139134154534264
12633257 1 18191871119407992538
12824470 246 15502952950988283139
13083527 12 17901112133391354343
13214271 11 18334849550005468332
13294875 104 16458804201475656933
13296908 3 18261117352408107230
13583140 156 18336259076810055234
14026960 21 18339078301933272508
14178342 30 17530964665983007907
14289901 80 17749117677207465236
15099037 37 18113898320458804609
15219456 202 18411138021736912077
15309172 13 17988926664788470919
15375358 24 18335976489457868357
15534591 1 15625953078650569611
15653759 3 18187934945142790615
15775835 57 17917701427165496932
16945 1 18265059204709757951
18175812 5 18336548226666210879
18186145 218 17489592272765756204
18219364 16 18130782421046906360
19049666 15 18047471127761045836
200 152 17703216318233226509
20279233 1 18334577906335193375
20361792 2 14273460287996469199
204376 136 18059851822390710080
20645477 70 18059005077840609294
20681677 76 18411696590971417013
20715346 28 18410295791661643150
21452121 199 16954809767260049155
21756936 100 16343432820446154674
21864079 5 17060352794205327000
22854114 111 18272927211619275532
22943178 12 18335422326806957662
22959321 60 18411134753398831112
23402539 116 18187921730425363085
23557571 272 18187661184196349517
23559900 14 17968946275533702734
2748010 2 18339642248355556020
3086196 2 17749672999436028235
474 4 17631439207092885032
49207404 50 18410579517317248410
495365 180 18057022654117808057
5104073 3 18411136896687557417
6049 1 18338248059011077676
633830 44 16702039559646703397
77492 1 16271921580212415997
9882013 296 18341618182177375131

> <PUBCHEM_SHAPE_MULTIPOLES>
336.1
7.52
1.94
1.41
0.77
0.11
-0.42
-1.83
-2.81
0.57
-0.05
-0.93
0.41
2

> <PUBCHEM_SHAPE_SELFOVERLAP>
725.288

> <PUBCHEM_SHAPE_VOLUME>
185.4

> <PUBCHEM_COORDINATE_TYPE>
2
5
10

$$$$
58473841
  SciTegic09112316443D

 53 53  0  0  1  0            999 V2000
   -0.7974   -0.1590   -2.4001 O   0  0
    0.4374   -2.6735   -1.5236 O   0  0
    2.2040    1.0743    0.6750 O   0  0
   -1.6983   -1.8562    0.4873 O   0  0
    3.2336   -2.6484   -0.9131 O   0  0
   -0.0339    0.7738   -0.2305 C   0  0  1  0  0  0
   -0.5453   -0.4377   -1.0393 C   0  0  2  0  0  0
    0.5687   -1.4384   -0.9399 C   0  0
    1.3843    0.3647    0.1101 C   0  0
   -0.0517    2.1090   -0.9597 C   0  0
    1.6645   -1.0199   -0.3031 C   0  0
   -1.7815   -1.0357   -0.4257 C   0  0
    2.8852   -1.7792   -0.0981 C   0  0
   -3.1055   -0.5662   -1.0078 C   0  0
   -0.0341    3.2584    0.0055 C   0  0
    3.7116   -1.4846    1.1612 C   0  0
    0.8548    4.2677    0.0704 C   0  0
   -4.2672   -1.1474   -0.2616 C   0  0
    2.8588   -1.7262    2.4023 C   0  0
    4.9855   -2.3251    1.2061 C   0  0
    1.9959    4.3432   -0.9088 C   0  0
    0.8151    5.3923    1.0658 C   0  0
   -4.8693   -0.6446    0.8330 C   0  0
   -6.0352   -1.2769    1.5387 C   0  0
   -4.3799    0.6351    1.4559 C   0  0
   -0.5743    0.8355    0.7248 H   0  0
    0.7412    2.1546   -1.7104 H   0  0
   -0.9956    2.2045   -1.5121 H   0  0
   -0.8904   -1.0006   -2.8789 H   0  0
   -3.1733   -0.9039   -2.0480 H   0  0
   -3.1360    0.5273   -1.0176 H   0  0
   -0.8509    3.2658    0.7266 H   0  0
    4.0316   -0.4382    1.1251 H   0  0
    1.2498   -3.1826   -1.3651 H   0  0
   -4.6509   -2.0833   -0.6651 H   0  0
    2.4711   -2.7511    2.4205 H   0  0
    1.9999   -1.0510    2.4564 H   0  0
    3.4484   -1.5726    3.3126 H   0  0
    4.7559   -3.3958    1.2414 H   0  0
    5.6020   -2.1471    0.3182 H   0  0
    5.5860   -2.0770    2.0876 H   0  0
    2.8734    4.7945   -0.4310 H   0  0
    2.3318    3.3702   -1.2737 H   0  0
    1.7202    4.9706   -1.7624 H   0  0
   -0.0491    5.3089    1.7331 H   0  0
    0.7477    6.3556    0.5502 H   0  0
    1.7174    5.3873    1.6856 H   0  0
   -5.7678   -1.5278    2.5702 H   0  0
   -6.8885   -0.5913    1.5542 H   0  0
   -6.3556   -2.1988    1.0423 H   0  0
   -5.1288    1.4234    1.3262 H   0  0
   -3.4327    1.0028    1.0554 H   0  0
   -4.2234    0.4887    2.5307 H   0  0
  1  7  1  0
  1 29  1  0
  2  8  1  0
  2 34  1  0
  3  9  2  0
  4 12  2  0
  5 13  2  0
  6  7  1  0
  6  9  1  0
  6 10  1  0
  6 26  1  0
  7  8  1  0
  7 12  1  0
  8 11  2  0
  9 11  1  0
 10 15  1  0
 10 27  1  0
 10 28  1  0
 11 13  1  0
 12 14  1  0
 13 16  1  0
 14 18  1  0
 14 30  1  0
 14 31  1  0
 15 17  2  0
 15 32  1  0
 16 19  1  0
 16 20  1  0
 16 33  1  0
 17 21  1  0
 17 22  1  0
 18 23  2  0
 18 35  1  0
 19 36  1  0
 19 37  1  0
 19 38  1  0
 20 39  1  0
 20 40  1  0
 20 41  1  0
 21 42  1  0
 21 43  1  0
 21 44  1  0
 22 45  1  0
 22 46  1  0
 22 47  1  0
 23 24  1  0
 23 25  1  0
 24 48  1  0
 24 49  1  0
 24 50  1  0
 25 51  1  0
 25 52  1  0
 25 53  1  0
M  END
> <Name>
58473841

> <OBJECTID>
9223372663923343374

> <PUBCHEM_COMPOUND_CID>
58473841

> <PUBCHEM_CONFORMER_RMSD>
1

> <PUBCHEM_CONFORMER_DIVERSEORDER>
1
71
60
97
15
49
25
93
113
9
24
54
96
50
18
7
74
65
53
32
78
89
16
95
41
105
58
76
117
21
73
103
48
4
91
82
75
90
43
19
64
52
83
40
39
57
69
79
116
77
100
81
106
114
61
88
33
59
92
85
102
111
26
44
13
62
47
36
17
101
63
87
22
27
107
104
67
45
108
109
14
38
51
86
55
80
30
35
70
66
23
5
8
34
46
20
110
12
84
99
56
3
42
10
94
29
2
28
68
72
31
115
37
6
98
112
11

> <PUBCHEM_MMFF94_PARTIAL_CHARGES>
27
1 -0.68
10 0.14
11 0.03
12 0.45
13 0.49
14 0.2
15 -0.29
16 0.06
17 -0.28
18 -0.29
2 -0.53
21 0.14
22 0.14
23 -0.28
24 0.14
25 0.14
29 0.4
3 -0.57
32 0.15
34 0.45
35 0.15
4 -0.57
5 -0.57
6 0.06
7 0.48
8 -0.06
9 0.49

> <PUBCHEM_EFFECTIVE_ROTOR_COUNT>
7.4

> <PUBCHEM_PHARMACOPHORE_FEATURES>
10
1 1 acceptor
1 1 donor
1 2 donor
1 3 acceptor
1 4 acceptor
1 5 acceptor
3 16 19 20 hydrophobe
3 17 21 22 hydrophobe
3 23 24 25 hydrophobe
5 6 7 8 9 11 rings

> <PUBCHEM_HEAVY_ATOM_COUNT>
25

> <PUBCHEM_ATOM_DEF_STEREO_COUNT>
2

> <PUBCHEM_ATOM_UDEF_STEREO_COUNT>
0

> <PUBCHEM_BOND_DEF_STEREO_COUNT>
0

> <PUBCHEM_BOND_UDEF_STEREO_COUNT>
0

> <PUBCHEM_ISOTOPIC_ATOM_COUNT>
0

> <PUBCHEM_COMPONENT_COUNT>
1

> <PUBCHEM_CACTVS_TAUTO_COUNT>
36

> <PUBCHEM_CONFORMER_ID>
037C3D7100000001

> <PUBCHEM_MMFF94_ENERGY>
39.3323

> <PUBCHEM_FEATURE_SELFOVERLAP>
50.748

> <PUBCHEM_SHAPE_FINGERPRINT>
10074138 170 17614817648997031128
10764073 3 16840242484958888535
11578080 2 17385988581825147229
11796584 16 17023741200463938235
12160290 23 17617071639270254916
12293681 160 17326854450039743885
12293681 4 18048026381692872117
12549972 3 17604690241299909061
12553582 1 18411697660413467126
12633257 1 18409729565033991859
12788726 201 18262524663357832994
13103583 49 18262527992163378731
13140716 1 18267010670567355752
133893 2 17906139061323756678
13533116 47 18042976552878537507
13878862 14 18263911277013257677
14363568 33 18337666533482980060
14466204 15 18263925424387350489
14713325 29 17979626837154672718
14790565 3 17977387453791688980
14955137 171 18340215201451488988
15042514 8 18048878494123457056
15475509 35 17458633349933387627
15664445 248 18127999518910504716
15842332 3 17844521330861669927
17876694 64 18059310776807610953
17980427 23 17917708003055858537
1813 80 18411141303107938951
18785283 64 18337675346570657503
20600515 1 18272376351519088823
20642791 268 18129653243926814929
20739085 24 18342739619797722488
21033648 29 17560520578400169731
21041028 32 18337665326565053892
21344244 78 18272933830274668713
23419403 2 17969482931607433925
23558518 356 17403163807990964860
3091708 16 9500585856373701564
3187 122 18193539096186438624
3380486 145 18127669574832460031
345986 75 17750783351271408611
3552219 110 17969240957745462172
394222 165 17984432007551919129
6086070 43 18189034453514641135
79837 15 17111846527190630032
81228 2 17979896243015039876
9777508 108 17404310594413776177
9841814 1 18335425685624480843
9981440 41 17619344751033319073

> <PUBCHEM_SHAPE_MULTIPOLES>
485.14
8.65
5.58
1.74
10.72
11.1
-0.2
-8.2
-5.57
-6.04
-0.77
0.02
-0.67
-0.71

> <PUBCHEM_SHAPE_SELFOVERLAP>
992.367

> <PUBCHEM_SHAPE_VOLUME>
280.3

> <PUBCHEM_COORDINATE_TYPE>
2
5
10

$$$$
58473846
  SciTegic09112316443D

 56 56  0  0  1  0            999 V2000
   -0.8565    0.1552    2.5249 O   0  0
    1.0054    2.2372    1.6819 O   0  0
    2.0053   -1.8488   -0.3976 O   0  0
   -1.0700    1.7711   -0.5333 O   0  0
    3.7738    1.5690    1.2336 O   0  0
   -0.0914   -1.1401    0.6117 C   0  0  2  0  0  0
   -0.4159    0.2553    1.1830 C   0  0  2  0  0  0
    0.8993    0.9788    1.1451 C   0  0
    1.3549   -0.9936    0.1858 C   0  0
    1.9078    0.3124    0.5793 C   0  0
   -0.9545   -1.6232   -0.5440 C   0  0
   -1.4216    1.0627    0.4090 C   0  0
    3.2689    0.7891    0.4104 C   0  0
    4.0685    0.2729   -0.7951 C   0  0  1  0  0  0
   -2.8654    0.9445    0.8712 C   0  0
   -0.7403   -3.0847   -0.8120 C   0  0
    4.5102    1.4079   -1.7315 C   0  0
    5.2809   -0.4983   -0.2765 C   0  0
   -1.4423   -4.1247   -0.3234 C   0  0
   -3.8173    1.0344   -0.2821 C   0  0
    3.3324    2.1955   -2.2912 C   0  0
   -1.1747   -5.5702   -0.6327 C   0  0
   -2.6074   -3.8913    0.6013 C   0  0
   -4.4153    2.1407   -0.7635 C   0  0
   -5.3643    2.1662   -1.9281 C   0  0
   -4.1705    3.4819   -0.1263 C   0  0
   -0.1079   -1.8730    1.4310 H   0  0
   -2.0144   -1.4392   -0.3563 H   0  0
   -0.7166   -1.0738   -1.4643 H   0  0
    3.4623   -0.4045   -1.4000 H   0  0
   -0.8565    1.0393    2.9287 H   0  0
   -3.0542    1.6924    1.6462 H   0  0
   -3.0257   -0.0342    1.3383 H   0  0
    0.0854   -3.3138   -1.4840 H   0  0
    5.1726    2.1011   -1.1988 H   0  0
    5.0868    0.9909   -2.5660 H   0  0
    0.1229    2.5150    1.9793 H   0  0
    5.9567    0.1505    0.2917 H   0  0
    4.9694   -1.3125    0.3869 H   0  0
    5.8479   -0.9355   -1.1049 H   0  0
   -4.0282    0.0894   -0.7804 H   0  0
    2.6332    1.5364   -2.8155 H   0  0
    2.7869    2.7201   -1.5009 H   0  0
    3.6885    2.9466   -3.0035 H   0  0
   -0.3345   -5.6851   -1.3254 H   0  0
   -2.0542   -6.0307   -1.0941 H   0  0
   -0.9307   -6.1186    0.2827 H   0  0
   -2.5551   -4.5856    1.4478 H   0  0
   -2.6454   -2.8900    1.0363 H   0  0
   -3.5484   -4.0729    0.0719 H   0  0
   -6.3381    2.5585   -1.6180 H   0  0
   -4.9696    2.7996   -2.7289 H   0  0
   -5.5230    1.1646   -2.3412 H   0  0
   -3.9320    4.2214   -0.8993 H   0  0
   -3.3399    3.5042    0.5821 H   0  0
   -5.0721    3.8173    0.3969 H   0  0
  1  7  1  0
  1 31  1  0
  2  8  1  0
  2 37  1  0
  3  9  2  0
  4 12  2  0
  5 13  2  0
  6  7  1  0
  6  9  1  0
  6 11  1  0
  6 27  1  0
  7  8  1  0
  7 12  1  0
  8 10  2  0
  9 10  1  0
 10 13  1  0
 11 16  1  0
 11 28  1  0
 11 29  1  0
 12 15  1  0
 13 14  1  0
 14 17  1  0
 14 18  1  0
 14 30  1  0
 15 20  1  0
 15 32  1  0
 15 33  1  0
 16 19  2  0
 16 34  1  0
 17 21  1  0
 17 35  1  0
 17 36  1  0
 18 38  1  0
 18 39  1  0
 18 40  1  0
 19 22  1  0
 19 23  1  0
 20 24  2  0
 20 41  1  0
 21 42  1  0
 21 43  1  0
 21 44  1  0
 22 45  1  0
 22 46  1  0
 22 47  1  0
 23 48  1  0
 23 49  1  0
 23 50  1  0
 24 25  1  0
 24 26  1  0
 25 51  1  0
 25 52  1  0
 25 53  1  0
 26 54  1  0
 26 55  1  0
 26 56  1  0
M  END
> <Name>
58473846

> <OBJECTID>
9223372668218310670

> <PUBCHEM_COMPOUND_CID>
58473846

> <PUBCHEM_CONFORMER_RMSD>
1

> <PUBCHEM_CONFORMER_DIVERSEORDER>
1
91
10
127
93
87
184
140
22
155
86
136
57
161
166
82
141
78
153
121
12
167
75
126
119
88
151
27
149
145
130
131
132
124
35
81
74
62
66
50
108
123
160
64
173
159
59
177
187
188
179
137
174
129
80
92
79
143
156
69
125
181
146
115
144
84
186
16
71
36
101
18
30
100
77
38
157
102
175
73
139
138
44
61
90
112
154
97
162
134
47
116
164
106
171
45
83
183
182
105
63
68
85
120
169
117
39
43
33
56
46
15
118
17
176
8
180
110
25
147
70
178
51
28
76
128
34
11
170
53
122
135
133
113
172
41
168
114
32
26
7
49
2
107
142
185
163
54
65
148
55
52
152
31
98
96
19
29
13
89
72
3
67
150
9
109
14
165
24
37
48
95
99
20
21
6
58
42
158
5
104
40
4
60
111
23
103
94

> <PUBCHEM_MMFF94_PARTIAL_CHARGES>
27
1 -0.68
10 0.03
11 0.14
12 0.45
13 0.49
14 0.06
15 0.2
16 -0.29
19 -0.28
2 -0.53
20 -0.29
22 0.14
23 0.14
24 -0.28
25 0.14
26 0.14
3 -0.57
31 0.4
34 0.15
37 0.45
4 -0.57
41 0.15
5 -0.57
6 0.06
7 0.48
8 -0.06
9 0.49

> <PUBCHEM_EFFECTIVE_ROTOR_COUNT>
8.4

> <PUBCHEM_PHARMACOPHORE_FEATURES>
11
1 1 acceptor
1 1 donor
1 18 hydrophobe
1 2 donor
1 21 hydrophobe
1 3 acceptor
1 4 acceptor
1 5 acceptor
3 19 22 23 hydrophobe
3 24 25 26 hydrophobe
5 6 7 8 9 10 rings

> <PUBCHEM_HEAVY_ATOM_COUNT>
26

> <PUBCHEM_ATOM_DEF_STEREO_COUNT>
2

> <PUBCHEM_ATOM_UDEF_STEREO_COUNT>
1

> <PUBCHEM_BOND_DEF_STEREO_COUNT>
0

> <PUBCHEM_BOND_UDEF_STEREO_COUNT>
0

> <PUBCHEM_ISOTOPIC_ATOM_COUNT>
0

> <PUBCHEM_COMPONENT_COUNT>
1

> <PUBCHEM_CACTVS_TAUTO_COUNT>
36

> <PUBCHEM_CONFORMER_ID>
037C3D7600000001

> <PUBCHEM_MMFF94_ENERGY>
42.1438

> <PUBCHEM_FEATURE_SELFOVERLAP>
55.824

> <PUBCHEM_SHAPE_FINGERPRINT>
105312 117 18409453574228825909
10764073 3 13675974627366167474
11488393 25 17612582324688084903
11796584 16 13614244715745967189
12293681 160 17846212190212864000
12788726 201 18044372970456558219
13149001 5 17988920127948739640
13540713 4 17844525716144546232
14251757 5 18192996143711751503
15163728 17 18192168018003172693
15664445 248 16754103956441916797
15775530 1 17699837720479691569
1813 80 17548988105314719202
20602899 9 18272657822337547403
21033650 10 17201945647252933768
21641784 216 17831314061027622119
22393880 68 17845354584476778645
22907989 373 18125737917401181325
23419403 2 13462608923980747387
23559900 14 17835787609296199873
266924 78 17765465078850817545
3057174 1 18340206272199033767
340366 18 18261683588718385854
3472631 163 17240762818803036733
3759504 43 18410572873082235599
4058900 60 18193846937988263969
4409770 3 18339924917523793075
57527585 21 16811259753809576020
58779409 8 18412262873840805975
633830 44 17095528435205816424
7164475 11 18049443935553334734

> <PUBCHEM_SHAPE_MULTIPOLES>
505.72
9.16
5.52
1.72
1.8
9.53
0.03
-9.11
4.58
-6.46
1.83
0.41
-1.12
0.32

> <PUBCHEM_SHAPE_SELFOVERLAP>
1030.711

> <PUBCHEM_SHAPE_VOLUME>
293.4

> <PUBCHEM_COORDINATE_TYPE>
2
5
10

$$$$
58473849
  SciTegic09112316443D

 53 53  0  0  1  0            999 V2000
   -0.7055    1.1085    2.3805 O   0  0
    0.3780    2.9582    0.4013 O   0  0
    2.2996   -1.2986   -0.0530 O   0  0
   -1.6887    1.1266   -0.9426 O   0  0
    2.6761    2.6665   -1.3178 O   0  0
    0.2021   -0.6943    1.0204 C   0  0  2  0  0  0
   -0.4521    0.7022    1.0480 C   0  0  2  0  0  0
    0.5863    1.6025    0.4434 C   0  0
    1.4927   -0.4387    0.2696 C   0  0
   -0.5976   -1.8111    0.3668 C   0  0
    1.6812    0.9928   -0.0158 C   0  0
   -1.7220    0.8466    0.2550 C   0  0
    2.8215    1.6306   -0.6494 C   0  0
   -3.0148    0.6322    1.0264 C   0  0
    0.0019   -3.1559    0.6599 C   0  0
    4.1981    0.9727   -0.4810 C   0  0
    0.5262   -4.0340   -0.2159 C   0  0
   -4.0646   -0.0035    0.1672 C   0  0
    5.2475    1.7779   -1.2402 C   0  0
    4.5789    0.8364    0.9913 C   0  0
    0.5712   -3.7109   -1.6857 C   0  0
    1.1128   -5.3692    0.1446 C   0  0
   -5.0031    0.6188   -0.5712 C   0  0
   -6.0326   -0.0773   -1.4155 C   0  0
   -5.0931    2.1210   -0.5864 C   0  0
    0.4832   -0.9780    2.0448 H   0  0
   -1.6045   -1.8399    0.7984 H   0  0
   -0.7339   -1.6254   -0.7014 H   0  0
   -0.9198    2.0565    2.3909 H   0  0
   -3.3317    1.5835    1.4625 H   0  0
   -2.8365   -0.0503    1.8654 H   0  0
   -0.0044   -3.4407    1.7115 H   0  0
    4.1630   -0.0169   -0.9491 H   0  0
   -0.5118    3.1388    0.7480 H   0  0
   -4.0417   -1.0920    0.1417 H   0  0
    5.3371    2.7954   -0.8433 H   0  0
    4.9932    1.8555   -2.3031 H   0  0
    6.2306    1.3004   -1.1682 H   0  0
    4.5679    1.8121    1.4900 H   0  0
    3.8948    0.1835    1.5400 H   0  0
    5.5847    0.4152    1.0937 H   0  0
   -0.2507   -4.2138   -2.2054 H   0  0
    0.5328   -2.6451   -1.9179 H   0  0
    1.5121   -4.0709   -2.1182 H   0  0
    1.0375   -5.5650    1.2193 H   0  0
    2.1720   -5.4091   -0.1290 H   0  0
    0.5838   -6.1717   -0.3794 H   0  0
   -7.0413    0.1886   -1.0835 H   0  0
   -5.9221    0.2088   -2.4663 H   0  0
   -5.9360   -1.1663   -1.3534 H   0  0
   -5.1594    2.4778   -1.6206 H   0  0
   -4.2365    2.6326   -0.1428 H   0  0
   -5.9947    2.4468   -0.0571 H   0  0
  1  7  1  0
  1 29  1  0
  2  8  1  0
  2 34  1  0
  3  9  2  0
  4 12  2  0
  5 13  2  0
  6  7  1  0
  6  9  1  0
  6 10  1  0
  6 26  1  0
  7  8  1  0
  7 12  1  0
  8 11  2  0
  9 11  1  0
 10 15  1  0
 10 27  1  0
 10 28  1  0
 11 13  1  0
 12 14  1  0
 13 16  1  0
 14 18  1  0
 14 30  1  0
 14 31  1  0
 15 17  2  0
 15 32  1  0
 16 19  1  0
 16 20  1  0
 16 33  1  0
 17 21  1  0
 17 22  1  0
 18 23  2  0
 18 35  1  0
 19 36  1  0
 19 37  1  0
 19 38  1  0
 20 39  1  0
 20 40  1  0
 20 41  1  0
 21 42  1  0
 21 43  1  0
 21 44  1  0
 22 45  1  0
 22 46  1  0
 22 47  1  0
 23 24  1  0
 23 25  1  0
 24 48  1  0
 24 49  1  0
 24 50  1  0
 25 51  1  0
 25 52  1  0
 25 53  1  0
M  END
> <Name>
58473849

> <OBJECTID>
9223372672513277966

> <PUBCHEM_COMPOUND_CID>
58473849

> <PUBCHEM_CONFORMER_RMSD>
1

> <PUBCHEM_CONFORMER_DIVERSEORDER>
2
45
30
8
60
52
103
88
54
74
32
26
23
43
9
56
87
29
69
7
101
62
66
86
70
50
95
90
24
34
71
46
33
15
89
67
98
106
17
41
64
76
11
59
83
35
58
19
63
84
22
73
81
79
80
78
94
44
96
48
47
68
42
65
93
55
85
28
108
107
14
39
61
77
99
100
102
82
13
91
12
27
53
25
5
49
31
104
38
16
18
40
97
10
57
6
4
20
105
37
75
36
92
3
51
21
72
1

> <PUBCHEM_MMFF94_PARTIAL_CHARGES>
27
1 -0.68
10 0.14
11 0.03
12 0.45
13 0.49
14 0.2
15 -0.29
16 0.06
17 -0.28
18 -0.29
2 -0.53
21 0.14
22 0.14
23 -0.28
24 0.14
25 0.14
29 0.4
3 -0.57
32 0.15
34 0.45
35 0.15
4 -0.57
5 -0.57
6 0.06
7 0.48
8 -0.06
9 0.49

> <PUBCHEM_EFFECTIVE_ROTOR_COUNT>
7.4

> <PUBCHEM_PHARMACOPHORE_FEATURES>
10
1 1 acceptor
1 1 donor
1 2 donor
1 3 acceptor
1 4 acceptor
1 5 acceptor
3 16 19 20 hydrophobe
3 17 21 22 hydrophobe
3 23 24 25 hydrophobe
5 6 7 8 9 11 rings

> <PUBCHEM_HEAVY_ATOM_COUNT>
25

> <PUBCHEM_ATOM_DEF_STEREO_COUNT>
2

> <PUBCHEM_ATOM_UDEF_STEREO_COUNT>
0

> <PUBCHEM_BOND_DEF_STEREO_COUNT>
0

> <PUBCHEM_BOND_UDEF_STEREO_COUNT>
0

> <PUBCHEM_ISOTOPIC_ATOM_COUNT>
0

> <PUBCHEM_COMPONENT_COUNT>
1

> <PUBCHEM_CACTVS_TAUTO_COUNT>
36

> <PUBCHEM_CONFORMER_ID>
037C3D7900000002

> <PUBCHEM_MMFF94_ENERGY>
42.1189

> <PUBCHEM_FEATURE_SELFOVERLAP>
50.749

> <PUBCHEM_SHAPE_FINGERPRINT>
10693767 8 18131067082763049406
11069576 57 18056460778428866639
11421498 54 18130792222626525769
11488393 25 18116988888852271987
12293681 160 18060144262155450480
12553582 1 17547025030957709483
13052359 8 18267586999523154866
13083527 12 17975679611427312738
13140716 1 18269015127794288306
13149001 5 17843400936454261856
13257819 37 18263940984173214542
133893 2 18052838952133958258
13583140 156 17096662069916541848
13836976 161 18408315593053570655
13911987 19 18336558199623093740
13968360 50 18336536158003787815
14508225 48 17473256574950938927
14790565 3 18410292523192141289
14863182 85 18129927988996247667
16752209 62 18196090177900830778
167882 2 18335705975074413626
17138139 8 17773294928822712335
19427546 20 17760100896980061060
20028762 73 18272081648507603342
20197701 30 18411132562928580418
20602899 9 18270413804988849641
20645477 70 18334854962107106579
20775438 99 16833158791688217607
21054139 6 18271793666760375711
21344244 181 17916882299403244366
21344244 246 18340207392953700974
21452121 199 17979906117034161755
22182313 1 18193866879221154826
23559900 14 18266169526796780243
23566358 27 17979932505312922945
266924 1 17843974641390745497
298252 57 18261673769779575481
3060560 45 18408036333937379181
352729 6 18266197164984942650
38695281 34 18409446998644327999
4017518 198 18343866602986643534
4280585 95 17617370684942933419
4409770 3 18121790692175038851
46194498 28 18044083563402784565
8272917 22 18338237047084338589

> <PUBCHEM_SHAPE_MULTIPOLES>
485.14
9.47
5.03
1.4
8.29
9.53
0.09
-8.06
-4.26
-3.32
-0.97
0.07
-0.16
-0.52

> <PUBCHEM_SHAPE_SELFOVERLAP>
993.53

> <PUBCHEM_SHAPE_VOLUME>
279.9

> <PUBCHEM_COORDINATE_TYPE>
2
5
10

$$$$
60208888
  SciTegic09112316442D

136143  0  0  1  0            999 V2000
    8.5991   -2.6210    0.0000 O   0  0
   11.8999    4.2290    0.0000 O   0  0
   10.2098    4.6079    0.0000 O   0  0
    6.8671   -2.6210    0.0000 O   0  0
    8.5991   -4.6210    0.0000 O   0  0
    6.8671   -5.6210    0.0000 O   0  0
   11.3830    5.8821    0.0000 O   0  0
    5.1350   -4.6210    0.0000 O   0  0
   13.8088    4.8259    0.0000 O   0  0
    9.4651   -3.1210    0.0000 O   0  0
    5.1350   -1.6210    0.0000 O   0  0
   14.2463    6.7774    0.0000 O   0  0
    5.1350   -5.6210    0.0000 O   0  0
   12.7749    8.1321    0.0000 O   0  0
   10.3312   -5.6210    0.0000 O   0  0
    6.8671   -7.6210    0.0000 O   0  0
   11.0848    8.5110    0.0000 O   0  0
   12.0632   -4.6210    0.0000 O   0  0
   12.0632   -2.6210    0.0000 O   0  0
    5.1350   -8.6210    0.0000 O   0  0
    3.4030   -7.6210    0.0000 O   0  0
    2.5369   -6.1210    0.0000 O   0  0
    8.5991    0.6260    0.0000 C   0  0  2  0  0  0
    9.5740    0.4035    0.0000 C   0  0  2  0  0  0
   10.2942    1.1561    0.0000 C   0  0  1  0  0  0
    9.9949    2.1538    0.0000 C   0  0  2  0  0  0
    8.9651   -0.4975    0.0000 C   0  0
    8.5991   -1.6210    0.0000 C   0  0  2  0  0  0
    8.2768    1.6165    0.0000 C   0  0
   10.0079   -0.4975    0.0000 C   0  0
    7.8173    0.0025    0.0000 C   0  0
    8.9794    2.3855    0.0000 C   0  0
   10.7267    2.9548    0.0000 C   0  0  2  0  0  0
   11.3461    0.8902    0.0000 C   0  0
    9.5740   -1.3984    0.0000 C   0  0
    7.8173   -0.9975    0.0000 C   0  0
   10.8919    0.3543    0.0000 C   0  0
   11.7845    2.7133    0.0000 C   0  0
   12.0963    1.6741    0.0000 C   0  0
    9.9910    3.6321    0.0000 C   0  0
   10.9455    3.9306    0.0000 C   0  0
    6.9163   -1.4313    0.0000 C   0  0
    7.7331   -3.1210    0.0000 C   0  0  2  0  0  0
    7.7331   -4.1210    0.0000 C   0  0  1  0  0  0
    6.8671   -4.6210    0.0000 C   0  0  2  0  0  0
   12.1187    5.2048    0.0000 C   0  0  2  0  0  0
    6.0010   -3.1210    0.0000 C   0  0  1  0  0  0
    6.0010   -4.1210    0.0000 C   0  0  1  0  0  0
   13.0731    5.5032    0.0000 C   0  0  1  0  0  0
    5.1350   -2.6210    0.0000 C   0  0
    9.4651   -4.1210    0.0000 C   0  0  2  0  0  0
   13.2918    6.4790    0.0000 C   0  0  2  0  0  0
   11.6018    6.8579    0.0000 C   0  0  1  0  0  0
   12.5562    7.1563    0.0000 C   0  0  1  0  0  0
    6.0010   -6.1210    0.0000 C   0  0  2  0  0  0
   10.3312   -4.6210    0.0000 C   0  0  1  0  0  0
    6.0010   -7.1210    0.0000 C   0  0  1  0  0  0
   10.8661    7.5352    0.0000 C   0  0
   11.1972   -4.1210    0.0000 C   0  0  1  0  0  0
   10.3312   -2.6210    0.0000 C   0  0  2  0  0  0
   11.1972   -3.1210    0.0000 C   0  0  2  0  0  0
    5.1350   -7.6210    0.0000 C   0  0  2  0  0  0
    4.2690   -6.1210    0.0000 C   0  0  1  0  0  0
    4.2690   -7.1210    0.0000 C   0  0  1  0  0  0
   10.3312   -1.6210    0.0000 C   0  0
    3.4030   -5.6210    0.0000 C   0  0
   10.4027    0.2144    0.0000 H   0  0
    9.7412    2.9650    0.0000 H   0  0
    9.4666   -0.8620    0.0000 H   0  0
    9.4666   -0.1329    0.0000 H   0  0
    7.8974    2.1069    0.0000 H   0  0
    7.7287    1.3266    0.0000 H   0  0
   10.4927   -0.8840    0.0000 H   0  0
   10.4927   -0.1109    0.0000 H   0  0
    7.5483    0.5611    0.0000 H   0  0
    7.2128   -0.1354    0.0000 H   0  0
    9.2187    2.9575    0.0000 H   0  0
    8.4568    2.7192    0.0000 H   0  0
   11.0936    0.3240    0.0000 H   0  0
   11.8608    0.5445    0.0000 H   0  0
    9.5740   -2.0184    0.0000 H   0  0
   10.1785   -1.5364    0.0000 H   0  0
   10.3948   -0.0162    0.0000 H   0  0
   11.2624   -0.1428    0.0000 H   0  0
   11.3890    0.7248    0.0000 H   0  0
   12.4001    2.7873    0.0000 H   0  0
   11.8170    3.3325    0.0000 H   0  0
   12.4643    1.1751    0.0000 H   0  0
   12.6509    1.9513    0.0000 H   0  0
   10.4110    4.0882    0.0000 H   0  0
    9.5349    4.0521    0.0000 H   0  0
    9.5711    3.1760    0.0000 H   0  0
    6.4040   -1.0821    0.0000 H   0  0
    6.8700   -2.0496    0.0000 H   0  0
    7.7331   -2.5010    0.0000 H   0  0
    7.7331   -4.7410    0.0000 H   0  0
    6.3301   -4.9310    0.0000 H   0  0
   12.5748    4.7848    0.0000 H   0  0
    6.0010   -2.5010    0.0000 H   0  0
    5.4641   -3.8110    0.0000 H   0  0
   13.6648    5.6882    0.0000 H   0  0
    4.5244   -2.5133    0.0000 H   0  0
    4.9230   -3.2036    0.0000 H   0  0
    9.4651   -4.7410    0.0000 H   0  0
   13.4275    7.0840    0.0000 H   0  0
   11.0100    6.6728    0.0000 H   0  0
    4.5981   -4.3110    0.0000 H   0  0
   12.1001    7.5763    0.0000 H   0  0
    6.5380   -6.4310    0.0000 H   0  0
   10.8681   -4.9310    0.0000 H   0  0
   14.4005    5.0109    0.0000 H   0  0
    4.5981   -1.3110    0.0000 H   0  0
    6.0010   -7.7410    0.0000 H   0  0
   10.2938    7.7738    0.0000 H   0  0
   10.5317    7.0131    0.0000 H   0  0
   11.1972   -4.7410    0.0000 H   0  0
    9.7942   -2.3110    0.0000 H   0  0
   14.3819    7.3824    0.0000 H   0  0
   11.7341   -3.4310    0.0000 H   0  0
    4.5981   -7.9310    0.0000 H   0  0
   13.3667    8.3171    0.0000 H   0  0
    4.2690   -5.5010    0.0000 H   0  0
    4.2690   -7.7410    0.0000 H   0  0
   10.8681   -5.9310    0.0000 H   0  0
   10.9512   -1.6210    0.0000 H   0  0
   10.3312   -1.0010    0.0000 H   0  0
    9.7112   -1.6210    0.0000 H   0  0
    6.8671   -8.2410    0.0000 H   0  0
   12.6002   -4.3110    0.0000 H   0  0
   10.6287    8.9310    0.0000 H   0  0
    3.8015   -5.1460    0.0000 H   0  0
    3.0044   -5.1460    0.0000 H   0  0
   12.0632   -2.0010    0.0000 H   0  0
    4.5981   -8.9310    0.0000 H   0  0
    3.4030   -8.2410    0.0000 H   0  0
    2.0000   -5.8110    0.0000 H   0  0
 28  1  1  6
 43  1  1  1
  2 41  1  0
 46  2  1  6
  3 41  2  0
  4 43  1  0
  4 47  1  0
 44  5  1  6
 51  5  1  6
 45  6  1  1
 55  6  1  1
  7 46  1  0
  7 53  1  0
 48  8  1  6
  8107  1  0
 49  9  1  1
  9111  1  0
 10 51  1  0
 10 60  1  0
 11 50  1  0
 11112  1  0
 52 12  1  6
 12118  1  0
 13 55  1  0
 13 63  1  0
 54 14  1  1
 14121  1  0
 56 15  1  1
 15124  1  0
 57 16  1  6
 16128  1  0
 17 58  1  0
 17130  1  0
 59 18  1  1
 18129  1  0
 61 19  1  6
 19133  1  0
 62 20  1  1
 20134  1  0
 64 21  1  6
 21135  1  0
 22 66  1  0
 22136  1  0
 23 24  1  0
 23 27  1  0
 23 29  1  6
 23 31  1  0
 24 25  1  0
 24 30  1  0
 24 67  1  1
 25 26  1  0
 25 34  1  0
 25 37  1  6
 26 32  1  0
 26 33  1  0
 26 68  1  1
 27 28  1  0
 27 69  1  0
 27 70  1  0
 28 35  1  0
 28 36  1  0
 29 32  1  0
 29 71  1  0
 29 72  1  0
 30 35  1  0
 30 73  1  0
 30 74  1  0
 31 36  1  0
 31 75  1  0
 31 76  1  0
 32 77  1  0
 32 78  1  0
 33 38  1  0
 33 40  1  1
 33 41  1  0
 34 39  1  0
 34 79  1  0
 34 80  1  0
 35 81  1  0
 35 82  1  0
 36 42  2  0
 37 83  1  0
 37 84  1  0
 37 85  1  0
 38 39  1  0
 38 86  1  0
 38 87  1  0
 39 88  1  0
 39 89  1  0
 40 90  1  0
 40 91  1  0
 40 92  1  0
 42 93  1  0
 42 94  1  0
 43 44  1  0
 43 95  1  0
 44 45  1  0
 44 96  1  0
 45 48  1  0
 45 97  1  0
 46 49  1  0
 46 98  1  0
 47 48  1  0
 47 50  1  1
 47 99  1  0
 48100  1  0
 49 52  1  0
 49101  1  0
 50102  1  0
 50103  1  0
 51 56  1  0
 51104  1  0
 52 54  1  0
 52105  1  0
 53 54  1  0
 53 58  1  6
 53106  1  0
 54108  1  0
 55 57  1  0
 55109  1  0
 56 59  1  0
 56110  1  0
 57 62  1  0
 57113  1  0
 58114  1  0
 58115  1  0
 59 61  1  0
 59116  1  0
 60 61  1  0
 60 65  1  1
 60117  1  0
 61119  1  0
 62 64  1  0
 62120  1  0
 63 64  1  0
 63 66  1  1
 63122  1  0
 64123  1  0
 65125  1  0
 65126  1  0
 65127  1  0
 66131  1  0
 66132  1  0
M  END
> <Name>
60208888

> <OBJECTID>
9223372676808245262

> <PUBCHEM_COMPOUND_CID>
60208888

> <PUBCHEM_COMPOUND_CANONICALIZED>
1

> <PUBCHEM_CACTVS_COMPLEXITY>
1740

> <PUBCHEM_CACTVS_HBOND_ACCEPTOR>
22

> <PUBCHEM_CACTVS_HBOND_DONOR>
13

> <PUBCHEM_CACTVS_ROTATABLE_BOND>
12

> <PUBCHEM_CACTVS_SUBSKEYS>
AAADcfB8PgAAAAAAAAAAAAAAAAAAAYAAAAA0aNEiBgAAAADAAAAAGgAACAAAD1SwgAMCCAAABgCIAgDSCAAAAAAgAAAAAAEAAAgRFBIAIQAiQAAFgAAHIAHI6PyPgAAAAAAAAADAAAYAACAAAYAAAAAAAA==

> <PUBCHEM_IUPAC_OPENEYE_NAME>
[(2S,3R,4S,5S,6R)-3,4,5-trihydroxy-6-(hydroxymethyl)tetrahydropyran-2-yl] (1R,4S,5R,9S,10R,13S)-13-[(2S,3R,4S,5R,6R)-5-hydroxy-6-(hydroxymethyl)-4-[(2S,3R,4S,5S,6R)-3,4,5-trihydroxy-6-(hydroxymethyl)tetrahydropyran-2-yl]oxy-3-[(2S,3R,4R,5R,6S)-3,4,5-trihydroxy-6-methyl-tetrahydropyran-2-yl]oxy-tetrahydropyran-2-yl]oxy-5,9-dimethyl-14-methylene-tetracyclo[11.2.1.01,10.04,9]hexadecane-5-carboxylate

> <PUBCHEM_IUPAC_CAS_NAME>
(1R,4S,5R,9S,10R,13S)-13-[[(2S,3R,4S,5R,6R)-5-hydroxy-6-(hydroxymethyl)-4-[[(2S,3R,4S,5S,6R)-3,4,5-trihydroxy-6-(hydroxymethyl)-2-oxanyl]oxy]-3-[[(2S,3R,4R,5R,6S)-3,4,5-trihydroxy-6-methyl-2-oxanyl]oxy]-2-oxanyl]oxy]-5,9-dimethyl-14-methylene-5-tetracyclo[11.2.1.01,10.04,9]hexadecanecarboxylic acid [(2S,3R,4S,5S,6R)-3,4,5-trihydroxy-6-(hydroxymethyl)-2-oxanyl] ester

> <PUBCHEM_IUPAC_NAME_MARKUP>
[(2<I>S</I>,3<I>R</I>,4<I>S</I>,5<I>S</I>,6<I>R</I>)-3,4,5-trihydroxy-6-(hydroxymethyl)oxan-2-yl] (1<I>R</I>,4<I>S</I>,5<I>R</I>,9<I>S</I>,10<I>R</I>,13<I>S</I>)-13-[(2<I>S</I>,3<I>R</I>,4<I>S</I>,5<I>R</I>,6<I>R</I>)-5-hydroxy-6-(hydroxymethyl)-4-[(2<I>S</I>,3<I>R</I>,4<I>S</I>,5<I>S</I>,6<I>R</I>)-3,4,5-trihydroxy-6-(hydroxymethyl)oxan-2-yl]oxy-3-[(2<I>S</I>,3<I>R</I>,4<I>R</I>,5<I>R</I>,6<I>S</I>)-3,4,5-trihydroxy-6-methyloxan-2-yl]oxyoxan-2-yl]oxy-5,9-dimethyl-14-methylidenetetracyclo[11.2.1.0<SUP>1,10</SUP>.0<SUP>4,9</SUP>]hexadecane-5-carboxylate

> <PUBCHEM_IUPAC_NAME>
[(2S,3R,4S,5S,6R)-3,4,5-trihydroxy-6-(hydroxymethyl)oxan-2-yl] (1R,4S,5R,9S,10R,13S)-13-[(2S,3R,4S,5R,6R)-5-hydroxy-6-(hydroxymethyl)-4-[(2S,3R,4S,5S,6R)-3,4,5-trihydroxy-6-(hydroxymethyl)oxan-2-yl]oxy-3-[(2S,3R,4R,5R,6S)-3,4,5-trihydroxy-6-methyloxan-2-yl]oxyoxan-2-yl]oxy-5,9-dimethyl-14-methylidenetetracyclo[11.2.1.01,10.04,9]hexadecane-5-carboxylate

> <PUBCHEM_IUPAC_SYSTEMATIC_NAME>
[(2S,3R,4S,5S,6R)-6-(hydroxymethyl)-3,4,5-tris(oxidanyl)oxan-2-yl] (1R,4S,5R,9S,10R,13S)-13-[(2S,3R,4S,5R,6R)-6-(hydroxymethyl)-4-[(2S,3R,4S,5S,6R)-6-(hydroxymethyl)-3,4,5-tris(oxidanyl)oxan-2-yl]oxy-3-[(2S,3R,4R,5R,6S)-6-methyl-3,4,5-tris(oxidanyl)oxan-2-yl]oxy-5-oxidanyl-oxan-2-yl]oxy-5,9-dimethyl-14-methylidene-tetracyclo[11.2.1.01,10.04,9]hexadecane-5-carboxylate

> <PUBCHEM_IUPAC_TRADITIONAL_NAME>
(1R,4S,5R,9S,10R,13S)-13-[(2S,3R,4S,5R,6R)-5-hydroxy-6-methylol-4-[(2S,3R,4S,5S,6R)-3,4,5-trihydroxy-6-methylol-tetrahydropyran-2-yl]oxy-3-[(2S,3R,4R,5R,6S)-3,4,5-trihydroxy-6-methyl-tetrahydropyran-2-yl]oxy-tetrahydropyran-2-yl]oxy-5,9-dimethyl-14-methylene-tetracyclo[11.2.1.01,10.04,9]hexadecane-5-carboxylic acid [(2S,3R,4S,5S,6R)-3,4,5-trihydroxy-6-methylol-tetrahydropyran-2-yl] ester

> <PUBCHEM_IUPAC_INCHI>
InChI=1S/C44H70O22/c1-17-12-43-10-6-22-41(3,8-5-9-42(22,4)40(58)65-38-33(57)30(54)26(50)20(14-46)61-38)23(43)7-11-44(17,16-43)66-39-35(64-36-31(55)28(52)24(48)18(2)59-36)34(27(51)21(15-47)62-39)63-37-32(56)29(53)25(49)19(13-45)60-37/h18-39,45-57H,1,5-16H2,2-4H3/t18-,19+,20+,21+,22-,23-,24-,25+,26+,27+,28+,29-,30-,31+,32+,33+,34-,35+,36-,37-,38-,39-,41+,42+,43+,44-/m0/s1

> <PUBCHEM_IUPAC_INCHIKEY>
QSRAJVGDWKFOGU-WBXIDTKBSA-N

> <PUBCHEM_XLOGP3_AA>
-2.3

> <PUBCHEM_EXACT_MASS>
950.43587386

> <PUBCHEM_MOLECULAR_FORMULA>
C44H70O22

> <PUBCHEM_MOLECULAR_WEIGHT>
951

> <PUBCHEM_OPENEYE_CAN_SMILES>
CC1C(C(C(C(O1)OC2C(C(C(OC2OC34CCC5C6(CCCC(C6CCC5(C3)CC4=C)(C)C(=O)OC7C(C(C(C(O7)CO)O)O)O)C)CO)O)OC8C(C(C(C(O8)CO)O)O)O)O)O)O

> <PUBCHEM_OPENEYE_ISO_SMILES>
C[C@H]1[C@@H]([C@H]([C@H]([C@@H](O1)O[C@@H]2[C@H]([C@@H]([C@H](O[C@H]2O[C@@]34CC[C@H]5[C@@]6(CCC[C@@]([C@H]6CC[C@]5(C3)CC4=C)(C)C(=O)O[C@H]7[C@@H]([C@H]([C@@H]([C@H](O7)CO)O)O)O)C)CO)O)O[C@H]8[C@@H]([C@H]([C@@H]([C@H](O8)CO)O)O)O)O)O)O

> <PUBCHEM_CACTVS_TPSA>
354

> <PUBCHEM_MONOISOTOPIC_WEIGHT>
950.43587386

> <PUBCHEM_TOTAL_CHARGE>
0

> <PUBCHEM_HEAVY_ATOM_COUNT>
66

> <PUBCHEM_ATOM_DEF_STEREO_COUNT>
26

> <PUBCHEM_ATOM_UDEF_STEREO_COUNT>
0

> <PUBCHEM_BOND_DEF_STEREO_COUNT>
0

> <PUBCHEM_BOND_UDEF_STEREO_COUNT>
0

> <PUBCHEM_ISOTOPIC_ATOM_COUNT>
0

> <PUBCHEM_COMPONENT_COUNT>
1

> <PUBCHEM_CACTVS_TAUTO_COUNT>
1

> <PUBCHEM_COORDINATE_TYPE>
1
5
255

> <PUBCHEM_BONDANNOTATIONS>
28  1  6
43  1  5
52  12  6
54  14  5
56  15  5
57  16  6
59  18  5
61  19  6
46  2  6
62  20  5
64  21  6
23  29  6
24  67  5
25  37  6
26  68  5
33  40  5
47  50  5
44  5  6
51  5  6
53  58  6
45  6  5
55  6  5
60  65  5
63  66  5
48  8  6
49  9  5

$$$$
67117572
  SciTegic09112316443D

 39 41  0  0  1  0            999 V2000
   -2.9224   -1.1248    0.1349 O   0  0
    1.7122   -0.2867    0.0348 N   0  0
   -1.0641    1.0505    0.0262 N   0  0
    0.4868   -0.8702    0.0920 C   0  0
   -0.7032   -0.2578    0.0879 C   0  0
    0.4102   -2.3704    0.1561 C   0  0
   -1.0783   -2.6872    0.3117 C   0  0  1  0  0  0
    1.9349    1.1530   -0.0431 C   0  0
    2.9733   -1.0199    0.0447 C   0  0
   -1.2547    1.9065    1.1918 C   0  0
   -1.3118    1.7778   -1.2138 C   0  0
   -1.7173   -1.3297    0.1673 C   0  0
    3.4151    1.2799   -0.3905 C   0  0
    4.0264    0.0592    0.2772 C   0  0
   -1.9392    3.1489    0.6300 C   0  0
   -1.3767    3.2387   -0.7790 C   0  0
   -1.5913   -3.6678   -0.7281 C   0  0
    0.8322   -2.8213   -0.7496 H   0  0
    0.9562   -2.7644    1.0207 H   0  0
   -1.2824   -3.0589    1.3227 H   0  0
    1.7429    1.6203    0.9273 H   0  0
    1.3556    1.6469   -0.8229 H   0  0
    3.1300   -1.5083   -0.9238 H   0  0
    3.0255   -1.7713    0.8390 H   0  0
   -1.8787    1.4278    1.9540 H   0  0
   -0.2934    2.1689    1.6430 H   0  0
   -0.5386    1.6148   -1.9708 H   0  0
   -2.2746    1.4636   -1.6337 H   0  0
    3.8495    2.2202   -0.0399 H   0  0
    3.5551    1.2199   -1.4767 H   0  0
    5.0017   -0.2103   -0.1374 H   0  0
    4.1476    0.2428    1.3517 H   0  0
   -1.7404    4.0434    1.2266 H   0  0
   -3.0244    2.9956    0.5902 H   0  0
   -1.9930    3.8477   -1.4460 H   0  0
   -0.3686    3.6695   -0.7522 H   0  0
   -1.0649   -4.6247   -0.6537 H   0  0
   -2.6612   -3.8560   -0.5881 H   0  0
   -1.4591   -3.2800   -1.7443 H   0  0
  1 12  2  0
  2  4  1  0
  2  8  1  0
  2  9  1  0
  3  5  1  0
  3 10  1  0
  3 11  1  0
  4  5  2  0
  4  6  1  0
  5 12  1  0
  6  7  1  0
  6 18  1  0
  6 19  1  0
  7 12  1  0
  7 17  1  0
  7 20  1  0
  8 13  1  0
  8 21  1  0
  8 22  1  0
  9 14  1  0
  9 23  1  0
  9 24  1  0
 10 15  1  0
 10 25  1  0
 10 26  1  0
 11 16  1  0
 11 27  1  0
 11 28  1  0
 13 14  1  0
 13 29  1  0
 13 30  1  0
 14 31  1  0
 14 32  1  0
 15 16  1  0
 15 33  1  0
 15 34  1  0
 16 35  1  0
 16 36  1  0
 17 37  1  0
 17 38  1  0
 17 39  1  0
M  END
> <Name>
67117572

> <OBJECTID>
9223372681103212558

> <PUBCHEM_COMPOUND_CID>
67117572

> <PUBCHEM_CONFORMER_RMSD>
0.6

> <PUBCHEM_CONFORMER_DIVERSEORDER>
1
2
3

> <PUBCHEM_MMFF94_PARTIAL_CHARGES>
12
1 -0.57
10 0.37
11 0.37
12 0.49
2 -0.84
3 -0.84
4 -0.04
5 0.11
6 0.14
7 0.06
8 0.37
9 0.37

> <PUBCHEM_EFFECTIVE_ROTOR_COUNT>
4.4

> <PUBCHEM_PHARMACOPHORE_FEATURES>
6
1 1 acceptor
1 2 cation
1 3 cation
5 2 8 9 13 14 rings
5 3 10 11 15 16 rings
5 4 5 6 7 12 rings

> <PUBCHEM_HEAVY_ATOM_COUNT>
17

> <PUBCHEM_ATOM_DEF_STEREO_COUNT>
0

> <PUBCHEM_ATOM_UDEF_STEREO_COUNT>
1

> <PUBCHEM_BOND_DEF_STEREO_COUNT>
0

> <PUBCHEM_BOND_UDEF_STEREO_COUNT>
0

> <PUBCHEM_ISOTOPIC_ATOM_COUNT>
0

> <PUBCHEM_COMPONENT_COUNT>
1

> <PUBCHEM_CACTVS_TAUTO_COUNT>
5

> <PUBCHEM_CONFORMER_ID>
400220400000001

> <PUBCHEM_MMFF94_ENERGY>
40.2567

> <PUBCHEM_FEATURE_SELFOVERLAP>
30.448

> <PUBCHEM_SHAPE_FINGERPRINT>
1 1 17761214314957261804
10162869 55 18198642076893509931
10967382 1 18193840563818940258
12173636 292 18340486651679547468
12553582 1 18049166862828710834
13027679 85 18123191474589195541
13132413 78 17978519959283314477
13140716 1 18193276514618038458
14614273 12 18335137536236846333
14817 1 14926769013157921549
14955137 171 17689754107978966315
15042514 8 18337675311995349627
15490181 7 18121229674972237651
15490181 8 17977372837969611323
16945 1 18341339967239175506
18219364 16 17976266729145754080
193761 8 18121781625662314843
19591789 44 18122918524758752435
19868273 325 18050003591045612030
20510252 161 18413106169252405696
21029758 11 17980194515487551655
21524375 3 18118123576145858960
21639500 275 17399789402658409485
21731228 192 18192718838762838384
2334 1 17905891735853847906
23402539 116 18270673276790405335
23419403 2 17341790563698472633
23557571 272 18269002062508600238
23558518 356 18262524693164420602
23559900 14 18270676584753596928
238 59 16960384990796911589
25 1 17616819833874695188
257057 1 18050561047645872742
2748010 2 18122634842337773638
3071541 158 17687739858585003047
3091708 16 9345802111273433066
350125 39 18194410995631908002
352729 6 18194399996188936473
353137 74 18335412474146738363
6992083 37 18126022682586903043
7364860 26 17330835721154973501
81228 2 18337117872605580346
8272917 22 17331964919961482305
84936 182 17479997710842755744
90316 7 18265321992489505090

> <PUBCHEM_SHAPE_MULTIPOLES>
334.02
4.68
4.41
0.9
5.04
1.89
0.04
-2.37
-0.13
-3.55
0.56
-0.39
-0.35
-0.23

> <PUBCHEM_SHAPE_SELFOVERLAP>
704.05

> <PUBCHEM_SHAPE_VOLUME>
192.7

> <PUBCHEM_COORDINATE_TYPE>
2
5
10

$$$$
67117575
  SciTegic09112316443D

 25 26  0  0  1  0            999 V2000
   -1.8964   -1.9140    0.2183 O   0  0
    0.9147   -1.4857   -0.0999 N   0  0
   -2.2446    0.4800    0.3774 C   0  0  2  0  0  0
   -1.2082    1.5780    0.1283 C   0  0
    0.0987    0.8488   -0.0004 C   0  0
   -0.0001   -0.4855    0.0119 C   0  0
   -1.4367   -0.7809    0.1986 C   0  0
   -3.4196    0.5403   -0.5826 C   0  0
    2.3026   -1.3250   -0.4778 C   0  0
    1.3151    1.6156   -0.1376 C   0  0
    3.0049   -0.2391    0.3368 C   0  0
    2.5696    1.1674    0.0270 C   0  0
   -2.5952    0.5206    1.4153 H   0  0
   -1.1890    2.2776    0.9720 H   0  0
   -1.4230    2.1508   -0.7814 H   0  0
   -3.0933    0.4302   -1.6228 H   0  0
   -3.9512    1.4925   -0.4877 H   0  0
   -4.1295   -0.2679   -0.3769 H   0  0
    0.5524   -2.4330   -0.0484 H   0  0
    2.3693   -1.1077   -1.5507 H   0  0
    2.8162   -2.2793   -0.3143 H   0  0
    1.1822    2.6726   -0.3598 H   0  0
    4.0781   -0.3045    0.1165 H   0  0
    2.8975   -0.4216    1.4130 H   0  0
    3.3740    1.8950   -0.0670 H   0  0
  1  7  2  0
  2  6  1  0
  2  9  1  0
  2 19  1  0
  3  4  1  0
  3  7  1  0
  3  8  1  0
  3 13  1  0
  4  5  1  0
  4 14  1  0
  4 15  1  0
  5  6  2  0
  5 10  1  0
  6  7  1  0
  8 16  1  0
  8 17  1  0
  8 18  1  0
  9 11  1  0
  9 20  1  0
  9 21  1  0
 10 12  2  0
 10 22  1  0
 11 12  1  0
 11 23  1  0
 11 24  1  0
 12 25  1  0
M  END
> <Name>
67117575

> <OBJECTID>
9223372685398179854

> <PUBCHEM_COMPOUND_CID>
67117575

> <PUBCHEM_CONFORMER_RMSD>
0.4

> <PUBCHEM_CONFORMER_DIVERSEORDER>
1
2

> <PUBCHEM_MMFF94_PARTIAL_CHARGES>
14
1 -0.57
10 -0.15
11 0.14
12 -0.29
19 0.4
2 -0.87
22 0.15
25 0.15
3 0.06
4 0.14
5 -0.14
6 0.11
7 0.49
9 0.37

> <PUBCHEM_EFFECTIVE_ROTOR_COUNT>
1

> <PUBCHEM_PHARMACOPHORE_FEATURES>
5
1 1 acceptor
1 2 cation
1 2 donor
5 3 4 5 6 7 rings
7 2 5 6 9 10 11 12 rings

> <PUBCHEM_HEAVY_ATOM_COUNT>
12

> <PUBCHEM_ATOM_DEF_STEREO_COUNT>
0

> <PUBCHEM_ATOM_UDEF_STEREO_COUNT>
1

> <PUBCHEM_BOND_DEF_STEREO_COUNT>
0

> <PUBCHEM_BOND_UDEF_STEREO_COUNT>
0

> <PUBCHEM_ISOTOPIC_ATOM_COUNT>
0

> <PUBCHEM_COMPONENT_COUNT>
1

> <PUBCHEM_CACTVS_TAUTO_COUNT>
28

> <PUBCHEM_CONFORMER_ID>
400220700000001

> <PUBCHEM_MMFF94_ENERGY>
20.3876

> <PUBCHEM_FEATURE_SELFOVERLAP>
25.397

> <PUBCHEM_SHAPE_FINGERPRINT>
12138202 97 18187354459143868015
12382932 28 18412823616302161832
12524768 44 18340212881726115414
12897270 3 18411984684482207324
12932764 1 17530679900881889616
13380535 21 18338534017675136745
13380535 76 18411414012161919415
13897977 150 18339640147916451441
14325111 11 18410292557435536312
14911166 2 18337675204588804238
15219456 202 18409169943426276737
16945 1 18410863118081302320
17990270 104 18409734001613233146
18186145 218 18265893567011771085
19973954 147 18411426119737829008
20201158 50 18411698755661359926
21501502 16 18337110175902820863
2334 1 18194123138286108234
23402655 69 18341601591383524653
23463225 33 18335136501434571040
23552423 10 18188776166127494548
23559900 14 18197503914395957550
2748010 2 18338803445279157686
369184 2 18333449850180798817
5084963 1 18058444314046653241
528886 8 18411414029357424616
63268167 104 18411423903434633600
7364860 26 18272371992712722360

> <PUBCHEM_SHAPE_MULTIPOLES>
236.1
4.62
1.87
0.68
0.47
0.19
-0.02
-0.12
-0.29
-0.2
-0.02
0.06
-0.01
0.19

> <PUBCHEM_SHAPE_SELFOVERLAP>
497.362

> <PUBCHEM_SHAPE_VOLUME>
133.6

> <PUBCHEM_COORDINATE_TYPE>
2
5
10

$$$$
67117586
  SciTegic09112316443D

 40 42  0  0  1  0            999 V2000
   -3.1795   -1.0432   -1.3072 O   0  0
   -2.5902    1.5211    0.0223 O   0  0
    1.0963   -1.4149    0.0176 N   0  0
    0.2722    1.5519    0.0174 N   0  0
   -0.1528   -0.8808    0.0208 C   0  0
   -0.4765    0.4183    0.0205 C   0  0
   -2.5572   -0.9058   -0.0409 C   0  0  1  0  0  0
   -1.3316   -1.8192    0.0408 C   0  0
    2.3262   -0.6305    0.0134 C   0  0
    1.3785   -2.8462    0.0195 C   0  0
   -1.9537    0.4771    0.0153 C   0  0
    0.7275    2.2396    1.2207 C   0  0
    0.7223    2.2372   -1.1892 C   0  0
    3.4157   -1.6528   -0.2958 C   0  0
    2.8708   -2.9282    0.3256 C   0  0
    1.2408    3.5815    0.7074 C   0  0
    1.7538    3.2402   -0.6817 C   0  0
   -3.5624   -1.1453    1.0735 C   0  0
   -1.2943   -2.5173   -0.8033 H   0  0
   -1.3287   -2.3951    0.9738 H   0  0
    2.5015   -0.1928    1.0007 H   0  0
    2.3541    0.1420   -0.7545 H   0  0
    1.1654   -3.2709   -0.9682 H   0  0
    0.8079   -3.3934    0.7769 H   0  0
    1.5327    1.6812    1.7069 H   0  0
   -0.0836    2.3820    1.9427 H   0  0
   -0.1247    2.7626   -1.6460 H   0  0
    1.1482    1.5608   -1.9364 H   0  0
    3.5174   -1.7807   -1.3804 H   0  0
    4.3897   -1.3637    0.1085 H   0  0
    3.0346   -2.9147    1.4100 H   0  0
    3.3333   -3.8321   -0.0804 H   0  0
    2.0114    4.0107    1.3535 H   0  0
    0.4138    4.2983    0.6349 H   0  0
    1.8417    4.1158   -1.3307 H   0  0
    2.7391    2.7643   -0.6097 H   0  0
   -3.1213   -0.9741    2.0611 H   0  0
   -4.4246   -0.4768    0.9690 H   0  0
   -3.9508   -2.1689    1.0345 H   0  0
   -3.4844   -1.9628   -1.3918 H   0  0
  1  7  1  0
  1 40  1  0
  2 11  2  0
  3  5  1  0
  3  9  1  0
  3 10  1  0
  4  6  1  0
  4 12  1  0
  4 13  1  0
  5  6  2  0
  5  8  1  0
  6 11  1  0
  7  8  1  0
  7 11  1  0
  7 18  1  0
  8 19  1  0
  8 20  1  0
  9 14  1  0
  9 21  1  0
  9 22  1  0
 10 15  1  0
 10 23  1  0
 10 24  1  0
 12 16  1  0
 12 25  1  0
 12 26  1  0
 13 17  1  0
 13 27  1  0
 13 28  1  0
 14 15  1  0
 14 29  1  0
 14 30  1  0
 15 31  1  0
 15 32  1  0
 16 17  1  0
 16 33  1  0
 16 34  1  0
 17 35  1  0
 17 36  1  0
 18 37  1  0
 18 38  1  0
 18 39  1  0
M  END
> <Name>
67117586

> <OBJECTID>
9223372689693147150

> <PUBCHEM_COMPOUND_CID>
67117586

> <PUBCHEM_CONFORMER_RMSD>
0.6

> <PUBCHEM_CONFORMER_DIVERSEORDER>
1
2
6
4
3
5

> <PUBCHEM_MMFF94_PARTIAL_CHARGES>
14
1 -0.68
10 0.37
11 0.49
12 0.37
13 0.37
2 -0.57
3 -0.84
4 -0.84
40 0.4
5 -0.04
6 0.11
7 0.34
8 0.14
9 0.37

> <PUBCHEM_EFFECTIVE_ROTOR_COUNT>
4.4

> <PUBCHEM_PHARMACOPHORE_FEATURES>
8
1 1 acceptor
1 1 donor
1 2 acceptor
1 3 cation
1 4 cation
5 3 9 10 14 15 rings
5 4 12 13 16 17 rings
5 5 6 7 8 11 rings

> <PUBCHEM_HEAVY_ATOM_COUNT>
18

> <PUBCHEM_ATOM_DEF_STEREO_COUNT>
0

> <PUBCHEM_ATOM_UDEF_STEREO_COUNT>
1

> <PUBCHEM_BOND_DEF_STEREO_COUNT>
0

> <PUBCHEM_BOND_UDEF_STEREO_COUNT>
0

> <PUBCHEM_ISOTOPIC_ATOM_COUNT>
0

> <PUBCHEM_COMPONENT_COUNT>
1

> <PUBCHEM_CACTVS_TAUTO_COUNT>
3

> <PUBCHEM_CONFORMER_ID>
400221200000001

> <PUBCHEM_MMFF94_ENERGY>
47.037

> <PUBCHEM_FEATURE_SELFOVERLAP>
40.598

> <PUBCHEM_SHAPE_FINGERPRINT>
10162869 55 17840033936954256985
108231 29 18334868194384991802
10967382 1 18266461086419888006
11680986 33 18410284801178248049
12173636 292 17043446446124812804
12553582 1 18339083679179689934
12788726 201 17688017622525477202
13027679 85 18267863882852836837
13132413 78 18340494361003126669
13140716 1 17977668932804189730
14614273 12 17400642619243833628
14817 1 14115796999305363972
14955137 171 18055102932664746819
15042514 8 17833274125420166019
15309172 13 17688876753776948001
15475509 84 18124910935182721137
16945 1 18338795723091736571
18785283 64 18044952395856592833
19591789 44 17617109439288118938
19868273 325 18266735792407100270
20028762 73 16181877449108605102
20510252 161 17547846357083445554
20645477 70 18190730033193577631
21029758 11 18195518208558032341
21029758 27 18335713701694075439
21041028 32 18340221691110228289
21665056 4 17473265856490946324
23114952 82 18116972538117303789
2334 1 18338797818872363642
23402539 116 17765700339831521975
23419403 2 17319526402650549956
23557571 272 18052823546566406270
2748010 2 18268135483683649834
3071541 158 18335417954551368989
3071541 250 18339376222144236494
3091708 16 9285813847915614434
350125 39 17760656166967447810
352729 6 16752687785422876702
43471831 8 17833831946918683811
458136 41 17975996567228555913
58807428 26 17907578386532399832
6992083 37 18057050099217169155
7364860 26 18340208608243997472
81228 2 17906737994613416786
90316 7 18048590430825157266

> <PUBCHEM_SHAPE_MULTIPOLES>
348.73
4.78
4.46
0.97
2.81
1.51
0.02
-2.4
-0.02
-4.62
-0.31
0.19
0.42
-0.06

> <PUBCHEM_SHAPE_SELFOVERLAP>
739.236

> <PUBCHEM_SHAPE_VOLUME>
200.4

> <PUBCHEM_COORDINATE_TYPE>
2
5
10

$$$$
71359704
  SciTegic09112316443D

 29 29  0  0  1  0            999 V2000
    0.5920    2.3740    0.0971 O   0  0
   -2.2538   -2.0458   -0.5306 O   0  0
   -0.2536   -1.0207   -0.0341 N   0  0
   -1.4518    1.3360   -0.1107 N   0  0
    1.9348   -0.0848    0.5743 C   0  0  2  0  0  0
    0.4251    0.0313    0.7084 C   0  0  1  0  0  0
    2.4114    0.0069   -0.8894 C   0  0
   -2.3057    0.2324    0.3036 C   0  0  2  0  0  0
   -0.0938    1.3571    0.1684 C   0  0
    2.4177   -1.4048    1.1880 C   0  0
   -1.6331   -1.0481   -0.1717 C   0  0
    3.9208   -0.1134   -1.0434 C   0  0
   -3.7099    0.3798   -0.2598 C   0  0
    0.1189   -0.0454    1.7592 H   0  0
    2.3993    0.7343    1.1397 H   0  0
    2.1109    0.9646   -1.3272 H   0  0
    1.9438   -0.7733   -1.5018 H   0  0
   -2.3374    0.2214    1.3993 H   0  0
    0.2481   -1.8696   -0.2750 H   0  0
    2.1900   -2.2699    0.5570 H   0  0
    1.9594   -1.5696    2.1695 H   0  0
    3.5008   -1.3877    1.3494 H   0  0
   -1.8848    2.2040   -0.4121 H   0  0
    4.2749   -1.1209   -0.8068 H   0  0
    4.4415    0.6023   -0.3995 H   0  0
    4.2076    0.0956   -2.0795 H   0  0
   -3.7006    0.3759   -1.3558 H   0  0
   -4.1639    1.3219    0.0657 H   0  0
   -4.3546   -0.4411    0.0712 H   0  0
  1  9  2  0
  2 11  2  0
  3  6  1  0
  3 11  1  0
  3 19  1  0
  4  8  1  0
  4  9  1  0
  4 23  1  0
  5  6  1  0
  5  7  1  0
  5 10  1  0
  5 15  1  0
  6  9  1  0
  6 14  1  0
  7 12  1  0
  7 16  1  0
  7 17  1  0
  8 11  1  0
  8 13  1  0
  8 18  1  0
 10 20  1  0
 10 21  1  0
 10 22  1  0
 12 24  1  0
 12 25  1  0
 12 26  1  0
 13 27  1  0
 13 28  1  0
 13 29  1  0
M  END
> <Name>
71359704

> <OBJECTID>
9223372693988114446

> <PUBCHEM_COMPOUND_CID>
71359704

> <PUBCHEM_CONFORMER_RMSD>
0.6

> <PUBCHEM_CONFORMER_DIVERSEORDER>
1
5
8
10
4
9
11
6
3
2
7

> <PUBCHEM_MMFF94_PARTIAL_CHARGES>
10
1 -0.57
11 0.57
19 0.37
2 -0.57
23 0.37
3 -0.73
4 -0.73
6 0.36
8 0.36
9 0.57

> <PUBCHEM_EFFECTIVE_ROTOR_COUNT>
2.8

> <PUBCHEM_PHARMACOPHORE_FEATURES>
7
1 1 acceptor
1 10 hydrophobe
1 12 hydrophobe
1 2 acceptor
1 3 donor
1 4 donor
6 3 4 6 8 9 11 rings

> <PUBCHEM_HEAVY_ATOM_COUNT>
13

> <PUBCHEM_ATOM_DEF_STEREO_COUNT>
3

> <PUBCHEM_ATOM_UDEF_STEREO_COUNT>
0

> <PUBCHEM_BOND_DEF_STEREO_COUNT>
0

> <PUBCHEM_BOND_UDEF_STEREO_COUNT>
0

> <PUBCHEM_ISOTOPIC_ATOM_COUNT>
0

> <PUBCHEM_COMPONENT_COUNT>
1

> <PUBCHEM_CACTVS_TAUTO_COUNT>
9

> <PUBCHEM_CONFORMER_ID>
0440DCD800000001

> <PUBCHEM_MMFF94_ENERGY>
37.1293

> <PUBCHEM_FEATURE_SELFOVERLAP>
35.531

> <PUBCHEM_SHAPE_FINGERPRINT>
10465860 71 18342750636409910044
12932764 1 18334572451494670889
14128692 85 18269560592455480836
14911166 2 18412543202377578037
14993402 34 18412262813964296013
15310529 11 17385442085769856613
15775835 57 18113903749202475726
16945 1 18341889667276277153
18619055 16 18187919526199583510
20201158 50 17703517609962337078
20645476 183 18041005046113140327
20645477 70 17765423636796514887
20711983 138 17203615847895238618
20711985 344 18058177119984057288
20871999 31 18411142475771232631
22213442 358 18200036269250565812
228727 97 18188788175262372464
23402539 116 18342455890258574380
23419403 2 16116193462288577633
23463225 33 18263637360118586923
23552423 10 18119243106737598669
23559900 14 18343867706660414518
2748010 2 18194954378057057561
53812653 8 18265057937678821409
53812654 25 18337940204171142138
7364860 26 17914614114157331920
74978 22 18340200899131148511
8030462 33 18187359943627343770

> <PUBCHEM_SHAPE_MULTIPOLES>
245.83
5.46
1.78
0.97
0.58
0.25
0.02
-0.76
-1.44
-0.45
0.07
0.74
-0.18
-0.53

> <PUBCHEM_SHAPE_SELFOVERLAP>
489.092

> <PUBCHEM_SHAPE_VOLUME>
144.9

> <PUBCHEM_COORDINATE_TYPE>
2
5
10

$$$$
71508173
  SciTegic09112316442D

137144  0  0  1  0            999 V2000
    6.7449   -4.0053    0.0000 O   0  0
    8.6841   -4.3135    0.0000 O   0  0
    3.8788    3.8544    0.0000 O   0  0
    5.3814    4.7160    0.0000 O   0  0
    6.0010   -8.0045    0.0000 O   0  0
    2.8840    5.5894    0.0000 O   0  0
    3.8891    7.3185    0.0000 O   0  0
    5.8891    7.3125    0.0000 O   0  0
    4.2690   -8.0045    0.0000 O   0  0
    7.3865    6.4420    0.0000 O   0  0
    6.0010  -10.0045    0.0000 O   0  0
    4.3917    8.1830    0.0000 O   0  0
    4.2690  -11.0045    0.0000 O   0  0
    2.5369  -10.0045    0.0000 O   0  0
    6.8943    9.0416    0.0000 O   0  0
    2.5369   -7.0045    0.0000 O   0  0
    5.8995   10.7766    0.0000 O   0  0
    3.8995   10.7826    0.0000 O   0  0
    6.9358   -1.5360    0.0000 C   0  0  1  0  0  0
    5.9358   -1.5369    0.0000 C   0  0  2  0  0  0
    7.2413   -2.4820    0.0000 C   0  0  2  0  0  0
    5.4350   -0.6713    0.0000 C   0  0  1  0  0  0
    6.4371   -3.0663    0.0000 C   0  0  2  0  0  0
    5.9343    0.1952    0.0000 C   0  0  2  0  0  0
    5.6318   -2.4834    0.0000 C   0  0
    7.4350   -0.6696    0.0000 C   0  0
    8.0393   -3.0649    0.0000 C   0  0  1  0  0  0
    6.9343    0.1960    0.0000 C   0  0
    5.4266    1.1047    0.0000 C   0  0  2  0  0  0
    7.7331   -4.0045    0.0000 C   0  0  1  0  0  0
    7.9358   -1.5352    0.0000 C   0  0
    4.3935   -0.6883    0.0000 C   0  0
    4.3850    1.1118    0.0000 C   0  0
    5.9899    2.0320    0.0000 C   0  0
    3.8650    0.2093    0.0000 C   0  0
    8.9909   -2.7575    0.0000 C   0  0
    6.4266    1.0979    0.0000 C   0  0
    7.7331   -5.0045    0.0000 C   0  0
    3.8345    2.0468    0.0000 C   0  0
    5.4612    2.9795    0.0000 C   0  0
    4.3762    2.9869    0.0000 C   0  0  2  0  0  0
    6.8671   -5.5045    0.0000 C   0  0
    6.8671   -6.5045    0.0000 C   0  0  2  0  0  0
    4.3814    4.7189    0.0000 C   0  0  2  0  0  0
    6.0010   -7.0045    0.0000 C   0  0
    7.7331   -7.0045    0.0000 C   0  0
    3.8839    5.5865    0.0000 C   0  0  1  0  0  0
    4.3865    6.4510    0.0000 C   0  0  2  0  0  0
    5.8839    5.5805    0.0000 C   0  0  1  0  0  0
    5.3865    6.4480    0.0000 C   0  0  1  0  0  0
    5.1350   -8.5045    0.0000 C   0  0  2  0  0  0
    6.8839    5.5775    0.0000 C   0  0
    5.1350   -9.5045    0.0000 C   0  0  1  0  0  0
    5.3917    8.1800    0.0000 C   0  0  2  0  0  0
    4.2690  -10.0045    0.0000 C   0  0  2  0  0  0
    3.4030   -8.5045    0.0000 C   0  0  1  0  0  0
    3.4030   -9.5045    0.0000 C   0  0  1  0  0  0
    5.8943    9.0446    0.0000 C   0  0  1  0  0  0
    2.5369   -8.0045    0.0000 C   0  0
    5.3969    9.9121    0.0000 C   0  0  1  0  0  0
    3.8943    9.0505    0.0000 C   0  0  2  0  0  0
    4.3969    9.9151    0.0000 C   0  0  2  0  0  0
    2.8943    9.0535    0.0000 C   0  0
    5.0906   -1.6276    0.0000 H   0  0
    7.9301   -1.9839    0.0000 H   0  0
    5.0163   -1.4110    0.0000 H   0  0
    5.7505   -3.5674    0.0000 H   0  0
    6.3599   -0.5406    0.0000 H   0  0
    5.0647   -2.2328    0.0000 H   0  0
    5.3231   -3.0210    0.0000 H   0  0
    7.9103   -1.0677    0.0000 H   0  0
    7.9096   -0.2706    0.0000 H   0  0
    8.1376   -2.4528    0.0000 H   0  0
    7.5167    0.4086    0.0000 H   0  0
    6.8261    0.8065    0.0000 H   0  0
    7.9363   -2.1552    0.0000 H   0  0
    8.5558   -1.5346    0.0000 H   0  0
    7.9352   -0.9152    0.0000 H   0  0
    3.8133   -0.9068    0.0000 H   0  0
    4.5096   -1.2973    0.0000 H   0  0
    6.4569    1.6242    0.0000 H   0  0
    6.4716    2.4224    0.0000 H   0  0
    3.2450    0.2064    0.0000 H   0  0
    9.1814   -3.3475    0.0000 H   0  0
    9.5808   -2.5670    0.0000 H   0  0
    8.8003   -2.1676    0.0000 H   0  0
    6.4224    0.4779    0.0000 H   0  0
    7.0466    1.0936    0.0000 H   0  0
    6.4309    1.7179    0.0000 H   0  0
    7.9451   -5.5871    0.0000 H   0  0
    8.3437   -4.8968    0.0000 H   0  0
    3.3582    2.4437    0.0000 H   0  0
    3.3620    1.6454    0.0000 H   0  0
    6.0462    3.1845    0.0000 H   0  0
    5.3592    3.5910    0.0000 H   0  0
    3.7562    2.9876    0.0000 H   0  0
    8.8130   -4.9199    0.0000 H   0  0
    6.6550   -4.9219    0.0000 H   0  0
    6.2565   -5.6121    0.0000 H   0  0
    6.8671   -7.1245    0.0000 H   0  0
    3.7614    4.7208    0.0000 H   0  0
    5.7890   -6.4219    0.0000 H   0  0
    5.3905   -7.1121    0.0000 H   0  0
    7.4231   -7.5414    0.0000 H   0  0
    8.2700   -7.3145    0.0000 H   0  0
    8.0431   -6.4675    0.0000 H   0  0
    3.5756    6.1243    0.0000 H   0  0
    4.6981    6.9870    0.0000 H   0  0
    6.1923    5.0426    0.0000 H   0  0
    6.0065    6.4461    0.0000 H   0  0
    2.5724    5.0534    0.0000 H   0  0
    5.1350   -7.8845    0.0000 H   0  0
    6.7744    4.9672    0.0000 H   0  0
    7.4659    5.3637    0.0000 H   0  0
    3.2691    7.3204    0.0000 H   0  0
    5.1350  -10.1245    0.0000 H   0  0
    6.0117    8.1782    0.0000 H   0  0
    3.7320  -10.3145    0.0000 H   0  0
    3.4030   -7.8845    0.0000 H   0  0
    3.4030  -10.1245    0.0000 H   0  0
    8.0065    6.4402    0.0000 H   0  0
    6.2059    9.5806    0.0000 H   0  0
    6.5380   -9.6945    0.0000 H   0  0
    1.9264   -7.8968    0.0000 H   0  0
    2.3249   -8.5871    0.0000 H   0  0
    5.0885   10.4499    0.0000 H   0  0
    3.5827    8.5145    0.0000 H   0  0
    3.7320  -11.3145    0.0000 H   0  0
    3.7769    9.9169    0.0000 H   0  0
    2.0000   -9.6945    0.0000 H   0  0
    7.2059    9.5776    0.0000 H   0  0
    2.8962    9.6735    0.0000 H   0  0
    2.2743    9.0554    0.0000 H   0  0
    2.8925    8.4335    0.0000 H   0  0
    2.0000   -6.6945    0.0000 H   0  0
    5.5911   11.3145    0.0000 H   0  0
    3.2795   10.7844    0.0000 H   0  0
  1 23  1  0
  1 30  1  0
 30  2  1  6
  2 97  1  0
 41  3  1  1
 44  3  1  1
  4 44  1  0
  4 49  1  0
  5 45  1  0
 51  5  1  1
 47  6  1  6
  6111  1  0
 48  7  1  1
  7115  1  0
 50  8  1  6
 54  8  1  6
  9 51  1  0
  9 56  1  0
 10 52  1  0
 10121  1  0
 53 11  1  6
 11123  1  0
 12 54  1  0
 12 61  1  0
 55 13  1  1
 13128  1  0
 57 14  1  6
 14130  1  0
 58 15  1  1
 15131  1  0
 16 59  1  0
 16135  1  0
 60 17  1  1
 17136  1  0
 62 18  1  6
 18137  1  0
 19 20  1  0
 19 21  1  0
 19 26  1  0
 19 31  1  1
 20 22  1  0
 20 25  1  0
 20 64  1  6
 21 23  1  0
 21 27  1  0
 21 65  1  6
 22 24  1  0
 22 32  1  0
 22 66  1  1
 23 25  1  0
 23 67  1  6
 24 28  1  0
 24 29  1  0
 24 68  1  6
 25 69  1  0
 25 70  1  0
 26 28  1  0
 26 71  1  0
 26 72  1  0
 27 30  1  0
 27 36  1  6
 27 73  1  0
 28 74  1  0
 28 75  1  0
 29 33  1  0
 29 34  1  0
 29 37  1  1
 30 38  1  0
 31 76  1  0
 31 77  1  0
 31 78  1  0
 32 35  1  0
 32 79  1  0
 32 80  1  0
 33 35  2  0
 33 39  1  0
 34 40  1  0
 34 81  1  0
 34 82  1  0
 35 83  1  0
 36 84  1  0
 36 85  1  0
 36 86  1  0
 37 87  1  0
 37 88  1  0
 37 89  1  0
 38 42  1  0
 38 90  1  0
 38 91  1  0
 39 41  1  0
 39 92  1  0
 39 93  1  0
 40 41  1  0
 40 94  1  0
 40 95  1  0
 41 96  1  0
 42 43  1  0
 42 98  1  0
 42 99  1  0
 43 45  1  0
 43 46  1  1
 43100  1  0
 44 47  1  0
 44101  1  0
 45102  1  0
 45103  1  0
 46104  1  0
 46105  1  0
 46106  1  0
 47 48  1  0
 47107  1  0
 48 50  1  0
 48108  1  0
 49 50  1  0
 49 52  1  1
 49109  1  0
 50110  1  0
 51 53  1  0
 51112  1  0
 52113  1  0
 52114  1  0
 53 55  1  0
 53116  1  0
 54 58  1  0
 54117  1  0
 55 57  1  0
 55118  1  0
 56 57  1  0
 56 59  1  1
 56119  1  0
 57120  1  0
 58 60  1  0
 58122  1  0
 59124  1  0
 59125  1  0
 60 62  1  0
 60126  1  0
 61 62  1  0
 61 63  1  1
 61127  1  0
 62129  1  0
 63132  1  0
 63133  1  0
 63134  1  0
M  END
> <Name>
71508173

> <OBJECTID>
9223372698283081742

> <PUBCHEM_COMPOUND_CID>
71508173

> <PUBCHEM_COMPOUND_CANONICALIZED>
1

> <PUBCHEM_CACTVS_COMPLEXITY>
1610

> <PUBCHEM_CACTVS_HBOND_ACCEPTOR>
18

> <PUBCHEM_CACTVS_HBOND_DONOR>
11

> <PUBCHEM_CACTVS_ROTATABLE_BOND>
12

> <PUBCHEM_CACTVS_SUBSKEYS>
AAADcfB8PgAAAAAAAAAAAAAAAAAAAaIAAAA0aJECAAASAGCAAAAAGgAACAAADxSwgAMCCAAABgCAAiBCAAAAAAAgAAAACAAAAAgREAIAAQAiQAAFwAAPAAPA4PwPgAAAAAAAAADAAAQAACAAAYAADAAAAA==

> <PUBCHEM_IUPAC_OPENEYE_NAME>
(2S,3R,4R,5R,6S)-2-[(2R,3S,4R,5R,6R)-4,5-dihydroxy-2-(hydroxymethyl)-6-[[(1S,2S,4S,6R,7S,8R,9S,12S,13R,16S)-6-hydroxy-7,9,13-trimethyl-6-[(3R)-3-methyl-4-[(2R,3R,4S,5S,6R)-3,4,5-trihydroxy-6-(hydroxymethyl)tetrahydropyran-2-yl]oxy-butyl]-5-oxapentacyclo[10.8.0.02,9.04,8.013,18]icos-18-en-16-yl]oxy]tetrahydropyran-3-yl]oxy-6-methyl-tetrahydropyran-3,4,5-triol

> <PUBCHEM_IUPAC_CAS_NAME>
(2S,3R,4R,5R,6S)-2-[[(2R,3S,4R,5R,6R)-4,5-dihydroxy-2-(hydroxymethyl)-6-[[(1S,2S,4S,6R,7S,8R,9S,12S,13R,16S)-6-hydroxy-7,9,13-trimethyl-6-[(3R)-3-methyl-4-[[(2R,3R,4S,5S,6R)-3,4,5-trihydroxy-6-(hydroxymethyl)-2-oxanyl]oxy]butyl]-5-oxapentacyclo[10.8.0.02,9.04,8.013,18]eicos-18-en-16-yl]oxy]-3-oxanyl]oxy]-6-methyloxane-3,4,5-triol

> <PUBCHEM_IUPAC_NAME_MARKUP>
(2<I>S</I>,3<I>R</I>,4<I>R</I>,5<I>R</I>,6<I>S</I>)-2-[(2<I>R</I>,3<I>S</I>,4<I>R</I>,5<I>R</I>,6<I>R</I>)-4,5-dihydroxy-2-(hydroxymethyl)-6-[[(1<I>S</I>,2<I>S</I>,4<I>S</I>,6<I>R</I>,7<I>S</I>,8<I>R</I>,9<I>S</I>,12<I>S</I>,13<I>R</I>,16<I>S</I>)-6-hydroxy-7,9,13-trimethyl-6-[(3<I>R</I>)-3-methyl-4-[(2<I>R</I>,3<I>R</I>,4<I>S</I>,5<I>S</I>,6<I>R</I>)-3,4,5-trihydroxy-6-(hydroxymethyl)oxan-2-yl]oxybutyl]-5-oxapentacyclo[10.8.0.0<SUP>2,9</SUP>.0<SUP>4,8</SUP>.0<SUP>13,18</SUP>]icos-18-en-16-yl]oxy]oxan-3-yl]oxy-6-methyloxane-3,4,5-triol

> <PUBCHEM_IUPAC_NAME>
(2S,3R,4R,5R,6S)-2-[(2R,3S,4R,5R,6R)-4,5-dihydroxy-2-(hydroxymethyl)-6-[[(1S,2S,4S,6R,7S,8R,9S,12S,13R,16S)-6-hydroxy-7,9,13-trimethyl-6-[(3R)-3-methyl-4-[(2R,3R,4S,5S,6R)-3,4,5-trihydroxy-6-(hydroxymethyl)oxan-2-yl]oxybutyl]-5-oxapentacyclo[10.8.0.02,9.04,8.013,18]icos-18-en-16-yl]oxy]oxan-3-yl]oxy-6-methyloxane-3,4,5-triol

> <PUBCHEM_IUPAC_SYSTEMATIC_NAME>
(2S,3R,4R,5R,6S)-2-[(2R,3S,4R,5R,6R)-2-(hydroxymethyl)-6-[[(1S,2S,4S,6R,7S,8R,9S,12S,13R,16S)-6-[(3R)-4-[(2R,3R,4S,5S,6R)-6-(hydroxymethyl)-3,4,5-tris(oxidanyl)oxan-2-yl]oxy-3-methyl-butyl]-7,9,13-trimethyl-6-oxidanyl-5-oxapentacyclo[10.8.0.02,9.04,8.013,18]icos-18-en-16-yl]oxy]-4,5-bis(oxidanyl)oxan-3-yl]oxy-6-methyl-oxane-3,4,5-triol

> <PUBCHEM_IUPAC_TRADITIONAL_NAME>
(2S,3R,4R,5R,6S)-2-[(2R,3S,4R,5R,6R)-4,5-dihydroxy-6-[[(1S,2S,4S,6R,7S,8R,9S,12S,13R,16S)-6-hydroxy-7,9,13-trimethyl-6-[(3R)-3-methyl-4-[(2R,3R,4S,5S,6R)-3,4,5-trihydroxy-6-methylol-tetrahydropyran-2-yl]oxy-butyl]-5-oxapentacyclo[10.8.0.02,9.04,8.013,18]eicos-18-en-16-yl]oxy]-2-methylol-tetrahydropyran-3-yl]oxy-6-methyl-tetrahydropyran-3,4,5-triol

> <PUBCHEM_IUPAC_INCHI>
InChI=1S/C45H74O18/c1-19(18-57-40-36(53)34(51)32(49)28(16-46)60-40)8-13-45(56)20(2)30-27(63-45)15-26-24-7-6-22-14-23(9-11-43(22,4)25(24)10-12-44(26,30)5)59-42-38(55)35(52)39(29(17-47)61-42)62-41-37(54)33(50)31(48)21(3)58-41/h6,19-21,23-42,46-56H,7-18H2,1-5H3/t19-,20+,21+,23+,24-,25+,26+,27+,28-,29-,30+,31+,32-,33-,34+,35-,36-,37-,38-,39-,40-,41+,42-,43+,44+,45-/m1/s1

> <PUBCHEM_IUPAC_INCHIKEY>
RKFMVZQLJBGJKK-YGXMXTOKSA-N

> <PUBCHEM_XLOGP3_AA>
-0.2

> <PUBCHEM_EXACT_MASS>
902.48751551

> <PUBCHEM_MOLECULAR_FORMULA>
C45H74O18

> <PUBCHEM_MOLECULAR_WEIGHT>
903.1

> <PUBCHEM_OPENEYE_CAN_SMILES>
CC1C2C(CC3C2(CCC4C3CC=C5C4(CCC(C5)OC6C(C(C(C(O6)CO)OC7C(C(C(C(O7)C)O)O)O)O)O)C)C)OC1(CCC(C)COC8C(C(C(C(O8)CO)O)O)O)O

> <PUBCHEM_OPENEYE_ISO_SMILES>
C[C@H]1[C@H]2[C@H](C[C@@H]3[C@@]2(CC[C@H]4[C@H]3CC=C5[C@@]4(CC[C@@H](C5)O[C@H]6[C@@H]([C@H]([C@@H]([C@H](O6)CO)O[C@H]7[C@@H]([C@@H]([C@H]([C@@H](O7)C)O)O)O)O)O)C)C)O[C@@]1(CC[C@@H](C)CO[C@H]8[C@@H]([C@H]([C@@H]([C@H](O8)CO)O)O)O)O

> <PUBCHEM_CACTVS_TPSA>
287

> <PUBCHEM_MONOISOTOPIC_WEIGHT>
902.48751551

> <PUBCHEM_TOTAL_CHARGE>
0

> <PUBCHEM_HEAVY_ATOM_COUNT>
63

> <PUBCHEM_ATOM_DEF_STEREO_COUNT>
26

> <PUBCHEM_ATOM_UDEF_STEREO_COUNT>
0

> <PUBCHEM_BOND_DEF_STEREO_COUNT>
0

> <PUBCHEM_BOND_UDEF_STEREO_COUNT>
0

> <PUBCHEM_ISOTOPIC_ATOM_COUNT>
0

> <PUBCHEM_COMPONENT_COUNT>
1

> <PUBCHEM_CACTVS_TAUTO_COUNT>
-1

> <PUBCHEM_COORDINATE_TYPE>
1
5
255

> <PUBCHEM_BONDANNOTATIONS>
53  11  6
55  13  5
57  14  6
58  15  5
60  17  5
62  18  6
19  31  5
30  2  6
20  64  6
21  65  6
22  66  5
23  67  6
24  68  6
27  36  6
29  37  5
41  3  5
44  3  5
43  46  5
49  52  5
51  5  5
56  59  5
47  6  6
61  63  5
48  7  5
50  8  6
54  8  6

$$$$
71581001
  SciTegic09112316442D

156165  0  0  1  0            999 V2000
   10.8882    1.9270    0.0000 O   0  0
   10.7717    3.0892    0.0000 O   0  0
    9.4651   -6.3170    0.0000 O   0  0
    9.3400    5.3997    0.0000 O   0  0
    7.7331   -6.3170    0.0000 O   0  0
    8.3177    6.7979    0.0000 O   0  0
    9.4651   -8.3170    0.0000 O   0  0
    7.7331   -9.3170    0.0000 O   0  0
   10.9545    6.5801    0.0000 O   0  0
    6.0010   -8.3170    0.0000 O   0  0
   10.7395    8.5685    0.0000 O   0  0
    8.9099    9.3766    0.0000 O   0  0
   10.3312   -6.8170    0.0000 O   0  0
    6.0010   -5.3170    0.0000 O   0  0
    6.4882    7.6060    0.0000 O   0  0
    5.1350   -6.8170    0.0000 O   0  0
   11.1972   -9.3170    0.0000 O   0  0
   12.9292   -8.3170    0.0000 O   0  0
    4.2690   -9.3170    0.0000 O   0  0
   12.9292   -6.3170    0.0000 O   0  0
    2.5369   -8.3170    0.0000 O   0  0
    2.5369   -6.3170    0.0000 O   0  0
    3.4030   -4.8170    0.0000 O   0  0
    9.4944   -0.1202    0.0000 C   0  0  1  0  0  0
   10.3623   -0.6168    0.0000 C   0  0  2  0  0  0
    9.6999    0.8525    0.0000 C   0  0  2  0  0  0
   10.3662   -1.6168    0.0000 C   0  0  1  0  0  0
   10.6882    0.9593    0.0000 C   0  0  2  0  0  0
   11.0968    0.0531    0.0000 C   0  0
    9.5021   -2.1202    0.0000 C   0  0  2  0  0  0
    9.2976    1.7551    0.0000 C   0  0  1  0  0  0
    8.6303   -0.6235    0.0000 C   0  0
   10.0305    2.4178    0.0000 C   0  0  1  0  0  0
    8.6342   -1.6235    0.0000 C   0  0
    9.4901   -3.1617    0.0000 C   0  0  2  0  0  0
    8.6264    0.3765    0.0000 C   0  0
   11.2781   -2.1202    0.0000 C   0  0
   10.3901   -3.6860    0.0000 C   0  0
    9.1630    2.9153    0.0000 C   0  0
    8.5402   -3.6860    0.0000 C   0  0
    8.3192    1.9617    0.0000 C   0  0
   11.2902   -3.1617    0.0000 C   0  0
   10.3622    4.0015    0.0000 C   0  0  1  0  0  0
    8.6260   -2.6584    0.0000 C   0  0
    9.3680    3.8940    0.0000 C   0  0
   10.4027   -4.7709    0.0000 C   0  0
    8.5276   -4.7709    0.0000 C   0  0
    9.4651   -5.3170    0.0000 C   0  0  2  0  0  0
   10.2547    4.9957    0.0000 C   0  0
   11.2745    4.4110    0.0000 C   0  0
    8.5991   -6.8170    0.0000 C   0  0  2  0  0  0
    9.2324    6.3939    0.0000 C   0  0  2  0  0  0
    8.5991   -7.8170    0.0000 C   0  0  1  0  0  0
    7.7331   -8.3170    0.0000 C   0  0  2  0  0  0
   10.0397    6.9841    0.0000 C   0  0  1  0  0  0
    6.8671   -6.8170    0.0000 C   0  0  1  0  0  0
    6.8671   -7.8170    0.0000 C   0  0  1  0  0  0
    9.9322    7.9783    0.0000 C   0  0  2  0  0  0
    8.2102    7.7921    0.0000 C   0  0  1  0  0  0
    9.0174    8.3824    0.0000 C   0  0  1  0  0  0
    6.0010   -6.3170    0.0000 C   0  0
   10.3312   -7.8170    0.0000 C   0  0  2  0  0  0
    7.2954    8.1962    0.0000 C   0  0
   11.1972   -8.3170    0.0000 C   0  0  1  0  0  0
    5.1350   -7.8170    0.0000 C   0  0  2  0  0  0
   12.0632   -7.8170    0.0000 C   0  0  1  0  0  0
   11.1972   -6.3170    0.0000 C   0  0  2  0  0  0
    4.2690   -8.3170    0.0000 C   0  0  1  0  0  0
   12.0632   -6.8170    0.0000 C   0  0  2  0  0  0
    3.4030   -7.8170    0.0000 C   0  0  2  0  0  0
    4.2690   -6.3170    0.0000 C   0  0  1  0  0  0
    3.4030   -6.8170    0.0000 C   0  0  1  0  0  0
   11.1972   -5.3170    0.0000 C   0  0
    4.2690   -5.3170    0.0000 C   0  0
   11.1406   -0.9585    0.0000 H   0  0
    8.8546    0.7629    0.0000 H   0  0
   11.0974   -1.1833    0.0000 H   0  0
   11.5330    1.0525    0.0000 H   0  0
   11.4642   -0.4463    0.0000 H   0  0
   11.6321    0.3659    0.0000 H   0  0
   10.2366   -2.5480    0.0000 H   0  0
    8.9078    1.2729    0.0000 H   0  0
    8.4160   -0.0417    0.0000 H   0  0
    8.0201   -0.7335    0.0000 H   0  0
    8.0232   -1.5182    0.0000 H   0  0
    8.4244   -2.2069    0.0000 H   0  0
    8.9344    0.9146    0.0000 H   0  0
    8.0883    0.6844    0.0000 H   0  0
    8.3185   -0.1616    0.0000 H   0  0
   11.8902   -2.2192    0.0000 H   0  0
   11.4804   -1.5341    0.0000 H   0  0
    8.5728    3.1051    0.0000 H   0  0
    8.9125    2.3481    0.0000 H   0  0
    8.3379   -3.0999    0.0000 H   0  0
    7.9281   -3.7850    0.0000 H   0  0
    8.4473    2.5684    0.0000 H   0  0
    7.7125    2.0899    0.0000 H   0  0
    8.1910    1.3551    0.0000 H   0  0
   11.8295   -3.4676    0.0000 H   0  0
    8.9380   -2.1226    0.0000 H   0  0
    8.0902   -2.3463    0.0000 H   0  0
    8.3139   -3.1941    0.0000 H   0  0
    9.3662    4.5140    0.0000 H   0  0
    8.7512    3.9570    0.0000 H   0  0
   10.6185   -5.3522    0.0000 H   0  0
   11.0123   -4.6578    0.0000 H   0  0
    7.9180   -4.6578    0.0000 H   0  0
    8.3118   -5.3522    0.0000 H   0  0
   10.0027   -5.6260    0.0000 H   0  0
   10.8733    4.9543    0.0000 H   0  0
   10.4029    5.5978    0.0000 H   0  0
   11.5284    3.8453    0.0000 H   0  0
   11.8402    4.6649    0.0000 H   0  0
   11.0207    4.9766    0.0000 H   0  0
    8.5991   -6.1970    0.0000 H   0  0
    8.7320    6.0280    0.0000 H   0  0
    8.5991   -8.4370    0.0000 H   0  0
    7.1962   -8.6270    0.0000 H   0  0
   10.5402    7.3501    0.0000 H   0  0
    6.8671   -6.1970    0.0000 H   0  0
    6.8671   -8.4370    0.0000 H   0  0
   10.4994    7.7279    0.0000 H   0  0
    7.7097    7.4262    0.0000 H   0  0
    9.5179    8.7483    0.0000 H   0  0
    5.3905   -6.2094    0.0000 H   0  0
    5.7890   -6.8996    0.0000 H   0  0
   10.3312   -8.4370    0.0000 H   0  0
    7.1962   -9.6270    0.0000 H   0  0
   11.4550    6.9461    0.0000 H   0  0
    7.6406    8.7112    0.0000 H   0  0
    6.8482    8.6255    0.0000 H   0  0
   10.6728    9.1850    0.0000 H   0  0
   11.7341   -8.6270    0.0000 H   0  0
    5.1350   -8.4370    0.0000 H   0  0
    8.3428    9.6270    0.0000 H   0  0
    5.4641   -5.0070    0.0000 H   0  0
   12.6002   -7.5070    0.0000 H   0  0
   10.6603   -6.0070    0.0000 H   0  0
    3.7320   -8.6270    0.0000 H   0  0
   12.0632   -6.1970    0.0000 H   0  0
    5.9210    7.8564    0.0000 H   0  0
    2.8660   -7.5070    0.0000 H   0  0
   11.7341   -9.6270    0.0000 H   0  0
    4.8059   -6.0070    0.0000 H   0  0
    3.4030   -6.1970    0.0000 H   0  0
   11.8172   -5.3170    0.0000 H   0  0
   11.1972   -4.6970    0.0000 H   0  0
   10.5772   -5.3170    0.0000 H   0  0
   13.4662   -8.0070    0.0000 H   0  0
    3.7320   -9.6270    0.0000 H   0  0
   13.4662   -6.6270    0.0000 H   0  0
    4.8796   -5.4247    0.0000 H   0  0
    4.4810   -4.7344    0.0000 H   0  0
    2.0000   -8.0070    0.0000 H   0  0
    2.5369   -5.6970    0.0000 H   0  0
    3.4030   -4.1970    0.0000 H   0  0
  1 28  1  0
 33  1  1  1
  2 33  1  0
  2 43  1  0
 48  3  1  1
 51  3  1  1
  4 49  1  0
 52  4  1  6
  5 51  1  0
  5 56  1  0
  6 52  1  0
  6 59  1  0
 53  7  1  6
 62  7  1  6
 54  8  1  1
  8128  1  0
 55  9  1  1
  9129  1  0
 57 10  1  6
 65 10  1  1
 58 11  1  6
 11132  1  0
 60 12  1  1
 12135  1  0
 13 62  1  0
 13 67  1  0
 14 61  1  0
 14136  1  0
 15 63  1  0
 15141  1  0
 16 65  1  0
 16 71  1  0
 64 17  1  1
 17143  1  0
 66 18  1  1
 18149  1  0
 68 19  1  6
 19150  1  0
 69 20  1  6
 20151  1  0
 70 21  1  1
 21154  1  0
 72 22  1  6
 22155  1  0
 23 74  1  0
 23156  1  0
 24 25  1  0
 24 26  1  0
 24 32  1  0
 24 36  1  1
 25 27  1  0
 25 29  1  0
 25 75  1  6
 26 28  1  0
 26 31  1  0
 26 76  1  6
 27 30  1  0
 27 37  1  0
 27 77  1  1
 28 29  1  0
 28 78  1  6
 29 79  1  0
 29 80  1  0
 30 34  1  0
 30 35  1  0
 30 81  1  6
 31 33  1  0
 31 41  1  6
 31 82  1  0
 32 34  1  0
 32 83  1  0
 32 84  1  0
 33 39  1  0
 34 85  1  0
 34 86  1  0
 35 38  1  0
 35 40  1  0
 35 44  1  1
 36 87  1  0
 36 88  1  0
 36 89  1  0
 37 42  1  0
 37 90  1  0
 37 91  1  0
 38 42  2  0
 38 46  1  0
 39 45  1  0
 39 92  1  0
 39 93  1  0
 40 47  1  0
 40 94  1  0
 40 95  1  0
 41 96  1  0
 41 97  1  0
 41 98  1  0
 42 99  1  0
 43 45  1  0
 43 49  1  0
 43 50  1  6
 44100  1  0
 44101  1  0
 44102  1  0
 45103  1  0
 45104  1  0
 46 48  1  0
 46105  1  0
 46106  1  0
 47 48  1  0
 47107  1  0
 47108  1  0
 48109  1  0
 49110  1  0
 49111  1  0
 50112  1  0
 50113  1  0
 50114  1  0
 51 53  1  0
 51115  1  0
 52 55  1  0
 52116  1  0
 53 54  1  0
 53117  1  0
 54 57  1  0
 54118  1  0
 55 58  1  0
 55119  1  0
 56 57  1  0
 56 61  1  1
 56120  1  0
 57121  1  0
 58 60  1  0
 58122  1  0
 59 60  1  0
 59 63  1  6
 59123  1  0
 60124  1  0
 61125  1  0
 61126  1  0
 62 64  1  0
 62127  1  0
 63130  1  0
 63131  1  0
 64 66  1  0
 64133  1  0
 65 68  1  0
 65134  1  0
 66 69  1  0
 66137  1  0
 67 69  1  0
 67 73  1  1
 67138  1  0
 68 70  1  0
 68139  1  0
 69140  1  0
 70 72  1  0
 70142  1  0
 71 72  1  0
 71 74  1  1
 71144  1  0
 72145  1  0
 73146  1  0
 73147  1  0
 73148  1  0
 74152  1  0
 74153  1  0
M  END
> <Name>
71581001

> <OBJECTID>
9223372702578049038

> <PUBCHEM_COMPOUND_CID>
71581001

> <PUBCHEM_COMPOUND_CANONICALIZED>
1

> <PUBCHEM_CACTVS_COMPLEXITY>
1990

> <PUBCHEM_CACTVS_HBOND_ACCEPTOR>
23

> <PUBCHEM_CACTVS_HBOND_DONOR>
13

> <PUBCHEM_CACTVS_ROTATABLE_BOND>
12

> <PUBCHEM_CACTVS_SUBSKEYS>
AAADcfB8PgAAAAAAAAAAAAAAAAAAAaJEAAA0aJEiAAASAGCAAAAAGgAACAAAD1SwgAMCCAAABgCAAiBCAAAAAAAgAAAACAAAAAgREAIAAQAiQAAFwAAPAAPA4PwPgAAAAAAAAADAAAQAACAAAYAADAAAAA==

> <PUBCHEM_IUPAC_OPENEYE_NAME>
(2S,3R,4R,5R,6S)-2-[(2R,3R,4S,5S,6R)-4-hydroxy-6-(hydroxymethyl)-2-[(1S,2S,4S,5'S,6S,7S,8R,9S,12S,13R,16S)-5',7,9,13-tetramethyl-5'-[[(2S,3R,4S,5S,6R)-3,4,5-trihydroxy-6-(hydroxymethyl)tetrahydropyran-2-yl]oxymethyl]spiro[5-oxapentacyclo[10.8.0.02,9.04,8.013,18]icos-18-ene-6,2'-tetrahydrofuran]-16-yl]oxy-5-[(2S,3R,4S,5S,6R)-3,4,5-trihydroxy-6-(hydroxymethyl)tetrahydropyran-2-yl]oxy-tetrahydropyran-3-yl]oxy-6-methyl-tetrahydropyran-3,4,5-triol

> <PUBCHEM_IUPAC_CAS_NAME>
(2S,3R,4R,5R,6S)-2-[[(2R,3R,4S,5S,6R)-4-hydroxy-6-(hydroxymethyl)-2-[[(1S,2S,4S,5'S,6S,7S,8R,9S,12S,13R,16S)-5',7,9,13-tetramethyl-5'-[[(2S,3R,4S,5S,6R)-3,4,5-trihydroxy-6-(hydroxymethyl)-2-oxanyl]oxymethyl]-16-spiro[5-oxapentacyclo[10.8.0.02,9.04,8.013,18]eicos-18-ene-6,2'-oxolane]yl]oxy]-5-[[(2S,3R,4S,5S,6R)-3,4,5-trihydroxy-6-(hydroxymethyl)-2-oxanyl]oxy]-3-oxanyl]oxy]-6-methyloxane-3,4,5-triol

> <PUBCHEM_IUPAC_NAME_MARKUP>
(2<I>S</I>,3<I>R</I>,4<I>R</I>,5<I>R</I>,6<I>S</I>)-2-[(2<I>R</I>,3<I>R</I>,4<I>S</I>,5<I>S</I>,6<I>R</I>)-4-hydroxy-6-(hydroxymethyl)-2-[(1<I>S</I>,2<I>S</I>,4<I>S</I>,5&apos;<I>S</I>,6<I>S</I>,7<I>S</I>,8<I>R</I>,9<I>S</I>,12<I>S</I>,13<I>R</I>,16<I>S</I>)-5&apos;,7,9,13-tetramethyl-5&apos;-[[(2<I>S</I>,3<I>R</I>,4<I>S</I>,5<I>S</I>,6<I>R</I>)-3,4,5-trihydroxy-6-(hydroxymethyl)oxan-2-yl]oxymethyl]spiro[5-oxapentacyclo[10.8.0.0<SUP>2,9</SUP>.0<SUP>4,8</SUP>.0<SUP>13,18</SUP>]icos-18-ene-6,2&apos;-oxolane]-16-yl]oxy-5-[(2<I>S</I>,3<I>R</I>,4<I>S</I>,5<I>S</I>,6<I>R</I>)-3,4,5-trihydroxy-6-(hydroxymethyl)oxan-2-yl]oxyoxan-3-yl]oxy-6-methyloxane-3,4,5-triol

> <PUBCHEM_IUPAC_NAME>
(2S,3R,4R,5R,6S)-2-[(2R,3R,4S,5S,6R)-4-hydroxy-6-(hydroxymethyl)-2-[(1S,2S,4S,5'S,6S,7S,8R,9S,12S,13R,16S)-5',7,9,13-tetramethyl-5'-[[(2S,3R,4S,5S,6R)-3,4,5-trihydroxy-6-(hydroxymethyl)oxan-2-yl]oxymethyl]spiro[5-oxapentacyclo[10.8.0.02,9.04,8.013,18]icos-18-ene-6,2'-oxolane]-16-yl]oxy-5-[(2S,3R,4S,5S,6R)-3,4,5-trihydroxy-6-(hydroxymethyl)oxan-2-yl]oxyoxan-3-yl]oxy-6-methyloxane-3,4,5-triol

> <PUBCHEM_IUPAC_SYSTEMATIC_NAME>
(2S,3R,4R,5R,6S)-2-[(2R,3R,4S,5S,6R)-6-(hydroxymethyl)-5-[(2S,3R,4S,5S,6R)-6-(hydroxymethyl)-3,4,5-tris(oxidanyl)oxan-2-yl]oxy-2-[(1S,2S,4S,5'S,6S,7S,8R,9S,12S,13R,16S)-5'-[[(2S,3R,4S,5S,6R)-6-(hydroxymethyl)-3,4,5-tris(oxidanyl)oxan-2-yl]oxymethyl]-5',7,9,13-tetramethyl-spiro[5-oxapentacyclo[10.8.0.02,9.04,8.013,18]icos-18-ene-6,2'-oxolane]-16-yl]oxy-4-oxidanyl-oxan-3-yl]oxy-6-methyl-oxane-3,4,5-triol

> <PUBCHEM_IUPAC_TRADITIONAL_NAME>
(2S,3R,4R,5R,6S)-2-[(2R,3R,4S,5S,6R)-4-hydroxy-6-methylol-2-[(1S,2S,4S,5'S,6S,7S,8R,9S,12S,13R,16S)-5',7,9,13-tetramethyl-5'-[[(2S,3R,4S,5S,6R)-3,4,5-trihydroxy-6-methylol-tetrahydropyran-2-yl]oxymethyl]spiro[5-oxapentacyclo[10.8.0.02,9.04,8.013,18]eicos-18-ene-6,2'-tetrahydrofuran]-16-yl]oxy-5-[(2S,3R,4S,5S,6R)-3,4,5-trihydroxy-6-methylol-tetrahydropyran-2-yl]oxy-tetrahydropyran-3-yl]oxy-6-methyl-tetrahydropyran-3,4,5-triol

> <PUBCHEM_IUPAC_INCHI>
InChI=1S/C51H82O23/c1-20-31-27(73-51(20)13-12-48(3,74-51)19-65-44-38(61)36(59)33(56)28(16-52)68-44)15-26-24-7-6-22-14-23(8-10-49(22,4)25(24)9-11-50(26,31)5)67-47-43(72-45-39(62)35(58)32(55)21(2)66-45)41(64)42(30(18-54)70-47)71-46-40(63)37(60)34(57)29(17-53)69-46/h6,20-21,23-47,52-64H,7-19H2,1-5H3/t20-,21-,23-,24+,25-,26-,27-,28+,29+,30+,31-,32-,33+,34+,35+,36-,37-,38+,39+,40+,41-,42+,43+,44+,45-,46-,47+,48-,49-,50-,51-/m0/s1

> <PUBCHEM_IUPAC_INCHIKEY>
XNKSKPFVXMYCKU-QTPGKRPGSA-N

> <PUBCHEM_XLOGP3_AA>
-2

> <PUBCHEM_EXACT_MASS>
1062.52468886

> <PUBCHEM_MOLECULAR_FORMULA>
C51H82O23

> <PUBCHEM_MOLECULAR_WEIGHT>
1063.2

> <PUBCHEM_OPENEYE_CAN_SMILES>
CC1C2C(CC3C2(CCC4C3CC=C5C4(CCC(C5)OC6C(C(C(C(O6)CO)OC7C(C(C(C(O7)CO)O)O)O)O)OC8C(C(C(C(O8)C)O)O)O)C)C)OC19CCC(O9)(C)COC1C(C(C(C(O1)CO)O)O)O

> <PUBCHEM_OPENEYE_ISO_SMILES>
C[C@H]1[C@H]2[C@H](C[C@@H]3[C@@]2(CC[C@H]4[C@H]3CC=C5[C@@]4(CC[C@@H](C5)O[C@H]6[C@@H]([C@H]([C@@H]([C@H](O6)CO)O[C@H]7[C@@H]([C@H]([C@@H]([C@H](O7)CO)O)O)O)O)O[C@H]8[C@@H]([C@@H]([C@H]([C@@H](O8)C)O)O)O)C)C)O[C@]19CC[C@@](O9)(C)CO[C@H]1[C@@H]([C@H]([C@@H]([C@H](O1)CO)O)O)O

> <PUBCHEM_CACTVS_TPSA>
355

> <PUBCHEM_MONOISOTOPIC_WEIGHT>
1062.52468886

> <PUBCHEM_TOTAL_CHARGE>
0

> <PUBCHEM_HEAVY_ATOM_COUNT>
74

> <PUBCHEM_ATOM_DEF_STEREO_COUNT>
31

> <PUBCHEM_ATOM_UDEF_STEREO_COUNT>
0

> <PUBCHEM_BOND_DEF_STEREO_COUNT>
0

> <PUBCHEM_BOND_UDEF_STEREO_COUNT>
0

> <PUBCHEM_ISOTOPIC_ATOM_COUNT>
0

> <PUBCHEM_COMPONENT_COUNT>
1

> <PUBCHEM_CACTVS_TAUTO_COUNT>
-1

> <PUBCHEM_COORDINATE_TYPE>
1
5
255

> <PUBCHEM_BONDANNOTATIONS>
33  1  5
57  10  6
65  10  5
58  11  6
60  12  5
64  17  5
66  18  5
68  19  6
69  20  6
70  21  5
72  22  6
24  36  5
25  75  6
26  76  6
27  77  5
28  78  6
48  3  5
51  3  5
30  81  6
31  41  6
35  44  5
52  4  6
43  50  6
56  61  5
59  63  6
67  73  5
53  7  6
62  7  6
71  74  5
54  8  5
55  9  5

$$$$
71581002
  SciTegic09112316442D

177187  0  0  1  0            999 V2000
   14.3523    1.9270    0.0000 O   0  0
   14.2358    3.0892    0.0000 O   0  0
   12.9292   -6.3170    0.0000 O   0  0
   12.8040    5.3997    0.0000 O   0  0
   11.1972   -6.3170    0.0000 O   0  0
   11.7818    6.7979    0.0000 O   0  0
   12.9292   -8.3170    0.0000 O   0  0
   11.1972   -9.3170    0.0000 O   0  0
   14.4186    6.5801    0.0000 O   0  0
    9.4651   -8.3170    0.0000 O   0  0
   14.2036    8.5685    0.0000 O   0  0
   12.3740    9.3766    0.0000 O   0  0
   13.7953   -6.8170    0.0000 O   0  0
    9.4651   -5.3170    0.0000 O   0  0
    9.9523    7.6060    0.0000 O   0  0
    8.5991   -6.8170    0.0000 O   0  0
   14.6613   -9.3170    0.0000 O   0  0
   16.3933   -8.3170    0.0000 O   0  0
    7.7331   -9.3170    0.0000 O   0  0
   16.3933   -6.3170    0.0000 O   0  0
    6.0010   -8.3170    0.0000 O   0  0
    6.0010   -6.3170    0.0000 O   0  0
    6.8671   -4.8170    0.0000 O   0  0
    5.1350   -6.8170    0.0000 O   0  0
    4.2690   -9.3170    0.0000 O   0  0
    2.5369   -8.3170    0.0000 O   0  0
    2.5369   -6.3170    0.0000 O   0  0
    5.1350   -4.8170    0.0000 O   0  0
   12.9585   -0.1202    0.0000 C   0  0  1  0  0  0
   13.8264   -0.6168    0.0000 C   0  0  2  0  0  0
   13.1640    0.8525    0.0000 C   0  0  2  0  0  0
   13.8303   -1.6168    0.0000 C   0  0  1  0  0  0
   14.1523    0.9593    0.0000 C   0  0  2  0  0  0
   14.5609    0.0531    0.0000 C   0  0
   12.9662   -2.1202    0.0000 C   0  0  2  0  0  0
   12.7617    1.7551    0.0000 C   0  0  1  0  0  0
   12.0944   -0.6235    0.0000 C   0  0
   13.4946    2.4178    0.0000 C   0  0  1  0  0  0
   12.0983   -1.6235    0.0000 C   0  0
   12.9542   -3.1617    0.0000 C   0  0  2  0  0  0
   12.0906    0.3765    0.0000 C   0  0
   14.7422   -2.1201    0.0000 C   0  0
   13.8542   -3.6860    0.0000 C   0  0
   12.6271    2.9153    0.0000 C   0  0
   12.0043   -3.6860    0.0000 C   0  0
   11.7833    1.9617    0.0000 C   0  0
   14.7543   -3.1617    0.0000 C   0  0
   13.8263    4.0015    0.0000 C   0  0  1  0  0  0
   12.0901   -2.6584    0.0000 C   0  0
   12.8321    3.8940    0.0000 C   0  0
   13.8668   -4.7709    0.0000 C   0  0
   11.9917   -4.7709    0.0000 C   0  0
   12.9292   -5.3170    0.0000 C   0  0  2  0  0  0
   13.7188    4.9957    0.0000 C   0  0
   14.7386    4.4110    0.0000 C   0  0
   12.0632   -6.8170    0.0000 C   0  0  2  0  0  0
   12.6965    6.3939    0.0000 C   0  0  2  0  0  0
   12.0632   -7.8170    0.0000 C   0  0  1  0  0  0
   11.1972   -8.3170    0.0000 C   0  0  2  0  0  0
   13.5038    6.9841    0.0000 C   0  0  1  0  0  0
   10.3312   -6.8170    0.0000 C   0  0  1  0  0  0
   10.3312   -7.8170    0.0000 C   0  0  1  0  0  0
   13.3963    7.9783    0.0000 C   0  0  2  0  0  0
   11.6743    7.7921    0.0000 C   0  0  1  0  0  0
   12.4815    8.3824    0.0000 C   0  0  1  0  0  0
    9.4651   -6.3170    0.0000 C   0  0
   13.7953   -7.8170    0.0000 C   0  0  2  0  0  0
   10.7595    8.1962    0.0000 C   0  0
   14.6613   -8.3170    0.0000 C   0  0  1  0  0  0
    8.5991   -7.8170    0.0000 C   0  0  2  0  0  0
   15.5273   -7.8170    0.0000 C   0  0  1  0  0  0
   14.6613   -6.3170    0.0000 C   0  0  2  0  0  0
    7.7331   -8.3170    0.0000 C   0  0  1  0  0  0
   15.5273   -6.8170    0.0000 C   0  0  2  0  0  0
    6.8671   -7.8170    0.0000 C   0  0  2  0  0  0
    7.7331   -6.3170    0.0000 C   0  0  1  0  0  0
    6.8671   -6.8170    0.0000 C   0  0  1  0  0  0
   14.6613   -5.3170    0.0000 C   0  0
    7.7331   -5.3170    0.0000 C   0  0
    5.1350   -7.8170    0.0000 C   0  0  2  0  0  0
    4.2690   -8.3170    0.0000 C   0  0  1  0  0  0
    3.4030   -7.8170    0.0000 C   0  0  2  0  0  0
    4.2690   -6.3170    0.0000 C   0  0  1  0  0  0
    3.4030   -6.8170    0.0000 C   0  0  1  0  0  0
    4.2690   -5.3170    0.0000 C   0  0
   14.6047   -0.9585    0.0000 H   0  0
   12.3187    0.7629    0.0000 H   0  0
   14.5615   -1.1833    0.0000 H   0  0
   14.9972    1.0525    0.0000 H   0  0
   14.9283   -0.4463    0.0000 H   0  0
   15.0962    0.3659    0.0000 H   0  0
   13.7007   -2.5480    0.0000 H   0  0
   12.3719    1.2729    0.0000 H   0  0
   11.8801   -0.0417    0.0000 H   0  0
   11.4842   -0.7335    0.0000 H   0  0
   11.4873   -1.5182    0.0000 H   0  0
   11.8885   -2.2069    0.0000 H   0  0
   12.3985    0.9146    0.0000 H   0  0
   11.5524    0.6844    0.0000 H   0  0
   11.7826   -0.1616    0.0000 H   0  0
   15.3543   -2.2192    0.0000 H   0  0
   14.9445   -1.5341    0.0000 H   0  0
   12.0369    3.1051    0.0000 H   0  0
   12.3766    2.3481    0.0000 H   0  0
   11.8020   -3.0999    0.0000 H   0  0
   11.3922   -3.7850    0.0000 H   0  0
   11.9114    2.5684    0.0000 H   0  0
   11.1766    2.0899    0.0000 H   0  0
   11.6551    1.3551    0.0000 H   0  0
   15.2936   -3.4676    0.0000 H   0  0
   12.4021   -2.1226    0.0000 H   0  0
   11.5543   -2.3463    0.0000 H   0  0
   11.7780   -3.1941    0.0000 H   0  0
   12.8302    4.5140    0.0000 H   0  0
   12.2153    3.9570    0.0000 H   0  0
   14.0826   -5.3522    0.0000 H   0  0
   14.4764   -4.6578    0.0000 H   0  0
   11.3821   -4.6578    0.0000 H   0  0
   11.7759   -5.3522    0.0000 H   0  0
   12.3917   -5.6260    0.0000 H   0  0
   14.3374    4.9543    0.0000 H   0  0
   13.8670    5.5977    0.0000 H   0  0
   14.9925    3.8454    0.0000 H   0  0
   15.3043    4.6649    0.0000 H   0  0
   14.4848    4.9766    0.0000 H   0  0
   12.6002   -7.1270    0.0000 H   0  0
   12.1960    6.0280    0.0000 H   0  0
   12.0632   -8.4370    0.0000 H   0  0
   10.6603   -8.6270    0.0000 H   0  0
   14.0043    7.3501    0.0000 H   0  0
   10.3312   -6.1970    0.0000 H   0  0
   10.3312   -8.4370    0.0000 H   0  0
   13.9635    7.7279    0.0000 H   0  0
   11.1738    7.4262    0.0000 H   0  0
   12.9820    8.7483    0.0000 H   0  0
    8.8546   -6.2094    0.0000 H   0  0
    9.2531   -6.8996    0.0000 H   0  0
   13.7953   -8.4370    0.0000 H   0  0
   10.6603   -9.6270    0.0000 H   0  0
   14.9191    6.9461    0.0000 H   0  0
   11.1047    8.7112    0.0000 H   0  0
   10.3123    8.6255    0.0000 H   0  0
   14.1369    9.1850    0.0000 H   0  0
   15.1982   -8.6270    0.0000 H   0  0
    8.5991   -8.4370    0.0000 H   0  0
   11.8069    9.6270    0.0000 H   0  0
    8.9282   -5.0070    0.0000 H   0  0
   16.0643   -7.5070    0.0000 H   0  0
   14.1244   -6.0070    0.0000 H   0  0
    7.1962   -8.6270    0.0000 H   0  0
   15.5273   -6.1970    0.0000 H   0  0
    9.3851    7.8564    0.0000 H   0  0
    6.3301   -7.5070    0.0000 H   0  0
   15.1982   -9.6270    0.0000 H   0  0
    8.2700   -6.0070    0.0000 H   0  0
    6.8671   -6.1970    0.0000 H   0  0
   15.2813   -5.3170    0.0000 H   0  0
   14.6613   -4.6970    0.0000 H   0  0
   14.0413   -5.3170    0.0000 H   0  0
   16.9303   -8.0070    0.0000 H   0  0
    7.1962   -9.6270    0.0000 H   0  0
   16.9303   -6.6270    0.0000 H   0  0
    8.3437   -5.4247    0.0000 H   0  0
    7.9451   -4.7344    0.0000 H   0  0
    6.0010   -5.6970    0.0000 H   0  0
    5.1350   -8.4370    0.0000 H   0  0
    3.7320   -8.6270    0.0000 H   0  0
    6.8671   -4.1970    0.0000 H   0  0
    2.8660   -7.5070    0.0000 H   0  0
    4.8059   -6.0070    0.0000 H   0  0
    3.4030   -6.1970    0.0000 H   0  0
    3.7320   -9.6270    0.0000 H   0  0
    4.0569   -4.7344    0.0000 H   0  0
    3.6584   -5.4247    0.0000 H   0  0
    2.0000   -8.0070    0.0000 H   0  0
    2.5369   -5.6970    0.0000 H   0  0
    5.1350   -4.1970    0.0000 H   0  0
  1 33  1  0
 38  1  1  1
  2 38  1  0
  2 48  1  0
 53  3  1  1
 56  3  1  1
  4 54  1  0
 57  4  1  6
  5 56  1  0
  5 61  1  0
  6 57  1  0
  6 64  1  0
 58  7  1  6
 67  7  1  6
 59  8  1  1
  8139  1  0
 60  9  1  1
  9140  1  0
 62 10  1  6
 70 10  1  1
 63 11  1  6
 11143  1  0
 65 12  1  1
 12146  1  0
 13 67  1  0
 13 72  1  0
 14 66  1  0
 14147  1  0
 15 68  1  0
 15152  1  0
 16 70  1  0
 16 76  1  0
 69 17  1  1
 17154  1  0
 71 18  1  1
 18160  1  0
 73 19  1  6
 19161  1  0
 74 20  1  6
 20162  1  0
 75 21  1  1
 80 21  1  1
 77 22  1  6
 22165  1  0
 23 79  1  0
 23168  1  0
 24 80  1  0
 24 83  1  0
 81 25  1  6
 25172  1  0
 82 26  1  1
 26175  1  0
 84 27  1  6
 27176  1  0
 28 85  1  0
 28177  1  0
 29 30  1  0
 29 31  1  0
 29 37  1  0
 29 41  1  1
 30 32  1  0
 30 34  1  0
 30 86  1  6
 31 33  1  0
 31 36  1  0
 31 87  1  6
 32 35  1  0
 32 42  1  0
 32 88  1  1
 33 34  1  0
 33 89  1  6
 34 90  1  0
 34 91  1  0
 35 39  1  0
 35 40  1  0
 35 92  1  6
 36 38  1  0
 36 46  1  6
 36 93  1  0
 37 39  1  0
 37 94  1  0
 37 95  1  0
 38 44  1  0
 39 96  1  0
 39 97  1  0
 40 43  1  0
 40 45  1  0
 40 49  1  1
 41 98  1  0
 41 99  1  0
 41100  1  0
 42 47  1  0
 42101  1  0
 42102  1  0
 43 47  2  0
 43 51  1  0
 44 50  1  0
 44103  1  0
 44104  1  0
 45 52  1  0
 45105  1  0
 45106  1  0
 46107  1  0
 46108  1  0
 46109  1  0
 47110  1  0
 48 50  1  0
 48 54  1  0
 48 55  1  6
 49111  1  0
 49112  1  0
 49113  1  0
 50114  1  0
 50115  1  0
 51 53  1  0
 51116  1  0
 51117  1  0
 52 53  1  0
 52118  1  0
 52119  1  0
 53120  1  0
 54121  1  0
 54122  1  0
 55123  1  0
 55124  1  0
 55125  1  0
 56 58  1  0
 56126  1  0
 57 60  1  0
 57127  1  0
 58 59  1  0
 58128  1  0
 59 62  1  0
 59129  1  0
 60 63  1  0
 60130  1  0
 61 62  1  0
 61 66  1  1
 61131  1  0
 62132  1  0
 63 65  1  0
 63133  1  0
 64 65  1  0
 64 68  1  6
 64134  1  0
 65135  1  0
 66136  1  0
 66137  1  0
 67 69  1  0
 67138  1  0
 68141  1  0
 68142  1  0
 69 71  1  0
 69144  1  0
 70 73  1  0
 70145  1  0
 71 74  1  0
 71148  1  0
 72 74  1  0
 72 78  1  1
 72149  1  0
 73 75  1  0
 73150  1  0
 74151  1  0
 75 77  1  0
 75153  1  0
 76 77  1  0
 76 79  1  1
 76155  1  0
 77156  1  0
 78157  1  0
 78158  1  0
 78159  1  0
 79163  1  0
 79164  1  0
 80 81  1  0
 80166  1  0
 81 82  1  0
 81167  1  0
 82 84  1  0
 82169  1  0
 83 84  1  0
 83 85  1  1
 83170  1  0
 84171  1  0
 85173  1  0
 85174  1  0
M  END
> <Name>
71581002

> <OBJECTID>
9223372706873016334

> <PUBCHEM_COMPOUND_CID>
71581002

> <PUBCHEM_COMPOUND_CANONICALIZED>
1

> <PUBCHEM_CACTVS_COMPLEXITY>
2310

> <PUBCHEM_CACTVS_HBOND_ACCEPTOR>
28

> <PUBCHEM_CACTVS_HBOND_DONOR>
16

> <PUBCHEM_CACTVS_ROTATABLE_BOND>
15

> <PUBCHEM_CACTVS_SUBSKEYS>
AAADcfB8PgAAAAAAAAAAAAAAAAAAAaJEAAA0aJEiQAASAGCAAAAAGgAACAAAD1SwgAMCCAAABgCAAiBCAAAAAAAgAAAACAAAAAgREAIAAQAiQAAFwAAPAAPA4PwPgAAAAAAAAADAAAQAACAAAYAADAAAAA==

> <PUBCHEM_IUPAC_OPENEYE_NAME>
(2S,3R,4R,5R,6S)-2-[(2R,3R,4S,5S,6R)-5-[(2S,3R,4S,5R,6R)-3,5-dihydroxy-6-(hydroxymethyl)-4-[(2S,3R,4S,5S,6R)-3,4,5-trihydroxy-6-(hydroxymethyl)tetrahydropyran-2-yl]oxy-tetrahydropyran-2-yl]oxy-4-hydroxy-6-(hydroxymethyl)-2-[(1S,2S,4S,5'S,6S,7S,8R,9S,12S,13R,16S)-5',7,9,13-tetramethyl-5'-[[(2S,3R,4S,5S,6R)-3,4,5-trihydroxy-6-(hydroxymethyl)tetrahydropyran-2-yl]oxymethyl]spiro[5-oxapentacyclo[10.8.0.02,9.04,8.013,18]icos-18-ene-6,2'-tetrahydrofuran]-16-yl]oxy-tetrahydropyran-3-yl]oxy-6-methyl-tetrahydropyran-3,4,5-triol

> <PUBCHEM_IUPAC_CAS_NAME>
(2S,3R,4R,5R,6S)-2-[[(2R,3R,4S,5S,6R)-5-[[(2S,3R,4S,5R,6R)-3,5-dihydroxy-6-(hydroxymethyl)-4-[[(2S,3R,4S,5S,6R)-3,4,5-trihydroxy-6-(hydroxymethyl)-2-oxanyl]oxy]-2-oxanyl]oxy]-4-hydroxy-6-(hydroxymethyl)-2-[[(1S,2S,4S,5'S,6S,7S,8R,9S,12S,13R,16S)-5',7,9,13-tetramethyl-5'-[[(2S,3R,4S,5S,6R)-3,4,5-trihydroxy-6-(hydroxymethyl)-2-oxanyl]oxymethyl]-16-spiro[5-oxapentacyclo[10.8.0.02,9.04,8.013,18]eicos-18-ene-6,2'-oxolane]yl]oxy]-3-oxanyl]oxy]-6-methyloxane-3,4,5-triol

> <PUBCHEM_IUPAC_NAME_MARKUP>
(2<I>S</I>,3<I>R</I>,4<I>R</I>,5<I>R</I>,6<I>S</I>)-2-[(2<I>R</I>,3<I>R</I>,4<I>S</I>,5<I>S</I>,6<I>R</I>)-5-[(2<I>S</I>,3<I>R</I>,4<I>S</I>,5<I>R</I>,6<I>R</I>)-3,5-dihydroxy-6-(hydroxymethyl)-4-[(2<I>S</I>,3<I>R</I>,4<I>S</I>,5<I>S</I>,6<I>R</I>)-3,4,5-trihydroxy-6-(hydroxymethyl)oxan-2-yl]oxyoxan-2-yl]oxy-4-hydroxy-6-(hydroxymethyl)-2-[(1<I>S</I>,2<I>S</I>,4<I>S</I>,5&apos;<I>S</I>,6<I>S</I>,7<I>S</I>,8<I>R</I>,9<I>S</I>,12<I>S</I>,13<I>R</I>,16<I>S</I>)-5&apos;,7,9,13-tetramethyl-5&apos;-[[(2<I>S</I>,3<I>R</I>,4<I>S</I>,5<I>S</I>,6<I>R</I>)-3,4,5-trihydroxy-6-(hydroxymethyl)oxan-2-yl]oxymethyl]spiro[5-oxapentacyclo[10.8.0.0<SUP>2,9</SUP>.0<SUP>4,8</SUP>.0<SUP>13,18</SUP>]icos-18-ene-6,2&apos;-oxolane]-16-yl]oxyoxan-3-yl]oxy-6-methyloxane-3,4,5-triol

> <PUBCHEM_IUPAC_NAME>
(2S,3R,4R,5R,6S)-2-[(2R,3R,4S,5S,6R)-5-[(2S,3R,4S,5R,6R)-3,5-dihydroxy-6-(hydroxymethyl)-4-[(2S,3R,4S,5S,6R)-3,4,5-trihydroxy-6-(hydroxymethyl)oxan-2-yl]oxyoxan-2-yl]oxy-4-hydroxy-6-(hydroxymethyl)-2-[(1S,2S,4S,5'S,6S,7S,8R,9S,12S,13R,16S)-5',7,9,13-tetramethyl-5'-[[(2S,3R,4S,5S,6R)-3,4,5-trihydroxy-6-(hydroxymethyl)oxan-2-yl]oxymethyl]spiro[5-oxapentacyclo[10.8.0.02,9.04,8.013,18]icos-18-ene-6,2'-oxolane]-16-yl]oxyoxan-3-yl]oxy-6-methyloxane-3,4,5-triol

> <PUBCHEM_IUPAC_SYSTEMATIC_NAME>
(2S,3R,4R,5R,6S)-2-[(2R,3R,4S,5S,6R)-6-(hydroxymethyl)-5-[(2S,3R,4S,5R,6R)-6-(hydroxymethyl)-4-[(2S,3R,4S,5S,6R)-6-(hydroxymethyl)-3,4,5-tris(oxidanyl)oxan-2-yl]oxy-3,5-bis(oxidanyl)oxan-2-yl]oxy-2-[(1S,2S,4S,5'S,6S,7S,8R,9S,12S,13R,16S)-5'-[[(2S,3R,4S,5S,6R)-6-(hydroxymethyl)-3,4,5-tris(oxidanyl)oxan-2-yl]oxymethyl]-5',7,9,13-tetramethyl-spiro[5-oxapentacyclo[10.8.0.02,9.04,8.013,18]icos-18-ene-6,2'-oxolane]-16-yl]oxy-4-oxidanyl-oxan-3-yl]oxy-6-methyl-oxane-3,4,5-triol

> <PUBCHEM_IUPAC_TRADITIONAL_NAME>
(2S,3R,4R,5R,6S)-2-[(2R,3R,4S,5S,6R)-5-[(2S,3R,4S,5R,6R)-3,5-dihydroxy-6-methylol-4-[(2S,3R,4S,5S,6R)-3,4,5-trihydroxy-6-methylol-tetrahydropyran-2-yl]oxy-tetrahydropyran-2-yl]oxy-4-hydroxy-6-methylol-2-[(1S,2S,4S,5'S,6S,7S,8R,9S,12S,13R,16S)-5',7,9,13-tetramethyl-5'-[[(2S,3R,4S,5S,6R)-3,4,5-trihydroxy-6-methylol-tetrahydropyran-2-yl]oxymethyl]spiro[5-oxapentacyclo[10.8.0.02,9.04,8.013,18]eicos-18-ene-6,2'-tetrahydrofuran]-16-yl]oxy-tetrahydropyran-3-yl]oxy-6-methyl-tetrahydropyran-3,4,5-triol

> <PUBCHEM_IUPAC_INCHI>
InChI=1S/C57H92O28/c1-21-33-28(84-57(21)13-12-54(3,85-57)20-74-49-41(69)39(67)35(63)29(16-58)77-49)15-27-25-7-6-23-14-24(8-10-55(23,4)26(25)9-11-56(27,33)5)76-53-48(83-50-42(70)38(66)34(62)22(2)75-50)44(72)46(32(19-61)80-53)81-52-45(73)47(37(65)31(18-60)79-52)82-51-43(71)40(68)36(64)30(17-59)78-51/h6,21-22,24-53,58-73H,7-20H2,1-5H3/t21-,22-,24-,25+,26-,27-,28-,29+,30+,31+,32+,33-,34-,35+,36+,37+,38+,39-,40-,41+,42+,43+,44-,45+,46+,47-,48+,49+,50-,51-,52-,53+,54-,55-,56-,57-/m0/s1

> <PUBCHEM_IUPAC_INCHIKEY>
NMIRRCSMDCNCKV-ZRCSLNBESA-N

> <PUBCHEM_XLOGP3_AA>
-3.6

> <PUBCHEM_EXACT_MASS>
1224.57751227

> <PUBCHEM_MOLECULAR_FORMULA>
C57H92O28

> <PUBCHEM_MOLECULAR_WEIGHT>
1225.3

> <PUBCHEM_OPENEYE_CAN_SMILES>
CC1C2C(CC3C2(CCC4C3CC=C5C4(CCC(C5)OC6C(C(C(C(O6)CO)OC7C(C(C(C(O7)CO)O)OC8C(C(C(C(O8)CO)O)O)O)O)O)OC9C(C(C(C(O9)C)O)O)O)C)C)OC11CCC(O1)(C)COC1C(C(C(C(O1)CO)O)O)O

> <PUBCHEM_OPENEYE_ISO_SMILES>
C[C@H]1[C@H]2[C@H](C[C@@H]3[C@@]2(CC[C@H]4[C@H]3CC=C5[C@@]4(CC[C@@H](C5)O[C@H]6[C@@H]([C@H]([C@@H]([C@H](O6)CO)O[C@H]7[C@@H]([C@H]([C@@H]([C@H](O7)CO)O)O[C@H]8[C@@H]([C@H]([C@@H]([C@H](O8)CO)O)O)O)O)O)O[C@H]9[C@@H]([C@@H]([C@H]([C@@H](O9)C)O)O)O)C)C)O[C@]11CC[C@@](O1)(C)CO[C@H]1[C@@H]([C@H]([C@@H]([C@H](O1)CO)O)O)O

> <PUBCHEM_CACTVS_TPSA>
434

> <PUBCHEM_MONOISOTOPIC_WEIGHT>
1224.57751227

> <PUBCHEM_TOTAL_CHARGE>
0

> <PUBCHEM_HEAVY_ATOM_COUNT>
85

> <PUBCHEM_ATOM_DEF_STEREO_COUNT>
36

> <PUBCHEM_ATOM_UDEF_STEREO_COUNT>
0

> <PUBCHEM_BOND_DEF_STEREO_COUNT>
0

> <PUBCHEM_BOND_UDEF_STEREO_COUNT>
0

> <PUBCHEM_ISOTOPIC_ATOM_COUNT>
0

> <PUBCHEM_COMPONENT_COUNT>
1

> <PUBCHEM_CACTVS_TAUTO_COUNT>
-1

> <PUBCHEM_COORDINATE_TYPE>
1
5
255

> <PUBCHEM_BONDANNOTATIONS>
38  1  5
62  10  6
70  10  5
63  11  6
65  12  5
69  17  5
71  18  5
73  19  6
74  20  6
75  21  5
80  21  5
77  22  6
81  25  6
82  26  5
84  27  6
29  41  5
53  3  5
56  3  5
30  86  6
31  87  6
32  88  5
33  89  6
35  92  6
36  46  6
57  4  6
40  49  5
48  55  6
61  66  5
64  68  6
58  7  6
67  7  6
72  78  5
76  79  5
59  8  5
83  85  5
60  9  5

$$$$
71773169
  SciTegic09112316442D

158166  0  0  1  0            999 V2000
    8.5991   -3.2416    0.0000 O   0  0
   11.8999    3.6084    0.0000 O   0  0
   10.2098    3.9872    0.0000 O   0  0
    6.8671   -3.2416    0.0000 O   0  0
    8.5991   -5.2416    0.0000 O   0  0
    6.8671   -6.2416    0.0000 O   0  0
   13.0731    4.8826    0.0000 O   0  0
    5.1350   -5.2416    0.0000 O   0  0
   10.4286    4.9630    0.0000 O   0  0
    9.4651   -3.7416    0.0000 O   0  0
    5.1350   -2.2416    0.0000 O   0  0
   10.8661    6.9146    0.0000 O   0  0
    5.1350   -6.2416    0.0000 O   0  0
   12.7749    7.5115    0.0000 O   0  0
   10.3312   -6.2416    0.0000 O   0  0
    9.9116    6.6162    0.0000 O   0  0
   14.9819    5.4794    0.0000 O   0  0
    6.8671   -8.2416    0.0000 O   0  0
   12.0632   -5.2416    0.0000 O   0  0
   12.0632   -3.2416    0.0000 O   0  0
    5.1350   -9.2416    0.0000 O   0  0
    3.4030   -8.2416    0.0000 O   0  0
    8.5197    4.3662    0.0000 O   0  0
   11.1972   -1.7416    0.0000 O   0  0
    7.0484    5.7208    0.0000 O   0  0
    2.5369   -6.7416    0.0000 O   0  0
    7.4859    7.6724    0.0000 O   0  0
    8.6591    8.9466    0.0000 O   0  0
    8.5991    0.0054    0.0000 C   0  0  2  0  0  0
    9.5740   -0.2171    0.0000 C   0  0  2  0  0  0
   10.2942    0.5354    0.0000 C   0  0  1  0  0  0
    9.9949    1.5331    0.0000 C   0  0  2  0  0  0
    8.9651   -1.1181    0.0000 C   0  0
    8.5991   -2.2416    0.0000 C   0  0  2  0  0  0
    8.2768    0.9959    0.0000 C   0  0
   10.0079   -1.1181    0.0000 C   0  0
    7.8173   -0.6181    0.0000 C   0  0
    8.9794    1.7649    0.0000 C   0  0
   10.7267    2.3341    0.0000 C   0  0  2  0  0  0
   11.3461    0.2696    0.0000 C   0  0
    9.5740   -2.0191    0.0000 C   0  0
    7.8173   -1.6181    0.0000 C   0  0
   10.8919   -0.2663    0.0000 C   0  0
   11.7845    2.0927    0.0000 C   0  0
   12.0963    1.0535    0.0000 C   0  0
    9.9910    3.0115    0.0000 C   0  0
   10.9455    3.3099    0.0000 C   0  0
    6.9163   -2.0520    0.0000 C   0  0
    7.7331   -3.7416    0.0000 C   0  0  2  0  0  0
    7.7331   -4.7416    0.0000 C   0  0  1  0  0  0
    6.8671   -5.2416    0.0000 C   0  0  2  0  0  0
   12.1187    4.5841    0.0000 C   0  0  2  0  0  0
    6.0010   -3.7416    0.0000 C   0  0  1  0  0  0
    6.0010   -4.7416    0.0000 C   0  0  1  0  0  0
   11.3830    5.2615    0.0000 C   0  0  1  0  0  0
    5.1350   -3.2416    0.0000 C   0  0
    9.4651   -4.7416    0.0000 C   0  0  2  0  0  0
   11.6018    6.2373    0.0000 C   0  0  2  0  0  0
   13.2918    5.8583    0.0000 C   0  0  1  0  0  0
   12.5562    6.5357    0.0000 C   0  0  1  0  0  0
    6.0010   -6.7416    0.0000 C   0  0  2  0  0  0
   10.3312   -5.2416    0.0000 C   0  0  1  0  0  0
   14.2463    6.1568    0.0000 C   0  0
    6.0010   -7.7416    0.0000 C   0  0  1  0  0  0
   11.1972   -4.7416    0.0000 C   0  0  2  0  0  0
    9.6929    5.6404    0.0000 C   0  0  2  0  0  0
   10.3312   -3.2416    0.0000 C   0  0  1  0  0  0
   11.1972   -3.7416    0.0000 C   0  0  1  0  0  0
    5.1350   -8.2416    0.0000 C   0  0  2  0  0  0
    4.2690   -6.7416    0.0000 C   0  0  1  0  0  0
    4.2690   -7.7416    0.0000 C   0  0  1  0  0  0
    8.7385    5.3419    0.0000 C   0  0  1  0  0  0
   10.3312   -2.2416    0.0000 C   0  0
    8.0028    6.0193    0.0000 C   0  0  2  0  0  0
    9.1760    7.2935    0.0000 C   0  0  1  0  0  0
    3.4030   -6.2416    0.0000 C   0  0
    8.2216    6.9951    0.0000 C   0  0  1  0  0  0
    9.3948    8.2693    0.0000 C   0  0
   10.4027   -0.4063    0.0000 H   0  0
    9.7412    2.3444    0.0000 H   0  0
    9.4666   -1.4827    0.0000 H   0  0
    9.4666   -0.7535    0.0000 H   0  0
    7.8974    1.4862    0.0000 H   0  0
    7.7287    0.7060    0.0000 H   0  0
   10.4927   -1.5047    0.0000 H   0  0
   10.4927   -0.7315    0.0000 H   0  0
    7.5483   -0.0595    0.0000 H   0  0
    7.2128   -0.7561    0.0000 H   0  0
    9.2187    2.3368    0.0000 H   0  0
    8.4568    2.0986    0.0000 H   0  0
   11.0936   -0.2967    0.0000 H   0  0
   11.8608   -0.0761    0.0000 H   0  0
    9.5740   -2.6391    0.0000 H   0  0
   10.1785   -2.1570    0.0000 H   0  0
   10.3948   -0.6369    0.0000 H   0  0
   11.2624   -0.7634    0.0000 H   0  0
   11.3890    0.1042    0.0000 H   0  0
   12.4001    2.1666    0.0000 H   0  0
   11.8170    2.7118    0.0000 H   0  0
   12.4643    0.5545    0.0000 H   0  0
   12.6509    1.3306    0.0000 H   0  0
   10.4110    3.4676    0.0000 H   0  0
    9.5349    3.4314    0.0000 H   0  0
    9.5711    2.5554    0.0000 H   0  0
    6.4040   -1.7027    0.0000 H   0  0
    6.8700   -2.6703    0.0000 H   0  0
    7.7331   -3.1216    0.0000 H   0  0
    7.7331   -5.3616    0.0000 H   0  0
    6.3301   -5.5516    0.0000 H   0  0
   11.5269    4.3991    0.0000 H   0  0
    6.0010   -3.1216    0.0000 H   0  0
    5.4641   -4.4316    0.0000 H   0  0
   10.9269    5.6814    0.0000 H   0  0
    4.5244   -3.1339    0.0000 H   0  0
    4.9230   -3.8242    0.0000 H   0  0
    9.4651   -5.3616    0.0000 H   0  0
   11.7374    6.8422    0.0000 H   0  0
   13.7480    5.4384    0.0000 H   0  0
    4.5981   -4.9316    0.0000 H   0  0
   12.1001    6.9556    0.0000 H   0  0
    6.5380   -7.0516    0.0000 H   0  0
   10.8681   -5.5516    0.0000 H   0  0
    4.5981   -1.9316    0.0000 H   0  0
   14.7391    6.5330    0.0000 H   0  0
   13.9613    6.7074    0.0000 H   0  0
    6.0010   -8.3616    0.0000 H   0  0
   11.1972   -5.3616    0.0000 H   0  0
    9.5573    5.0354    0.0000 H   0  0
    9.7942   -2.9316    0.0000 H   0  0
   11.0017    7.5196    0.0000 H   0  0
   11.7341   -4.0516    0.0000 H   0  0
   13.3667    7.6965    0.0000 H   0  0
    4.5981   -8.5516    0.0000 H   0  0
    4.2690   -6.1216    0.0000 H   0  0
   10.8681   -6.5516    0.0000 H   0  0
    4.2690   -8.3616    0.0000 H   0  0
    8.1467    5.1569    0.0000 H   0  0
   10.1191   -1.6590    0.0000 H   0  0
    9.7206   -2.3493    0.0000 H   0  0
   15.5737    5.6645    0.0000 H   0  0
    7.4040   -7.9316    0.0000 H   0  0
   12.6002   -4.9316    0.0000 H   0  0
    7.5467    6.4392    0.0000 H   0  0
    9.7677    7.4785    0.0000 H   0  0
    3.8015   -5.7666    0.0000 H   0  0
    3.0044   -5.7666    0.0000 H   0  0
   12.0632   -2.6216    0.0000 H   0  0
    8.3572    7.6000    0.0000 H   0  0
    4.5981   -9.5516    0.0000 H   0  0
    3.4030   -8.8616    0.0000 H   0  0
    7.9280    4.1811    0.0000 H   0  0
   11.1972   -1.1216    0.0000 H   0  0
    9.9670    8.0306    0.0000 H   0  0
    9.7291    8.7914    0.0000 H   0  0
    6.5922    6.1408    0.0000 H   0  0
    2.0000   -6.4316    0.0000 H   0  0
    6.8941    7.4874    0.0000 H   0  0
    8.7947    9.5516    0.0000 H   0  0
 34  1  1  6
 49  1  1  1
  2 47  1  0
 52  2  1  1
  3 47  2  0
  4 49  1  0
  4 53  1  0
 50  5  1  6
 57  5  1  6
 51  6  1  1
 61  6  1  1
  7 52  1  0
  7 59  1  0
 54  8  1  6
  8119  1  0
 55  9  1  6
 66  9  1  1
 10 57  1  0
 10 67  1  0
 11 56  1  0
 11123  1  0
 58 12  1  1
 12130  1  0
 13 61  1  0
 13 70  1  0
 60 14  1  6
 14132  1  0
 62 15  1  1
 15135  1  0
 16 66  1  0
 16 75  1  0
 17 63  1  0
 17140  1  0
 64 18  1  6
 18141  1  0
 65 19  1  6
 19142  1  0
 68 20  1  1
 20147  1  0
 69 21  1  1
 21149  1  0
 71 22  1  6
 22150  1  0
 72 23  1  6
 23151  1  0
 24 73  1  0
 24152  1  0
 74 25  1  1
 25155  1  0
 26 76  1  0
 26156  1  0
 77 27  1  6
 27157  1  0
 28 78  1  0
 28158  1  0
 29 30  1  0
 29 33  1  0
 29 35  1  6
 29 37  1  0
 30 31  1  0
 30 36  1  0
 30 79  1  1
 31 32  1  0
 31 40  1  0
 31 43  1  6
 32 38  1  0
 32 39  1  0
 32 80  1  1
 33 34  1  0
 33 81  1  0
 33 82  1  0
 34 41  1  0
 34 42  1  0
 35 38  1  0
 35 83  1  0
 35 84  1  0
 36 41  1  0
 36 85  1  0
 36 86  1  0
 37 42  1  0
 37 87  1  0
 37 88  1  0
 38 89  1  0
 38 90  1  0
 39 44  1  0
 39 46  1  1
 39 47  1  0
 40 45  1  0
 40 91  1  0
 40 92  1  0
 41 93  1  0
 41 94  1  0
 42 48  2  0
 43 95  1  0
 43 96  1  0
 43 97  1  0
 44 45  1  0
 44 98  1  0
 44 99  1  0
 45100  1  0
 45101  1  0
 46102  1  0
 46103  1  0
 46104  1  0
 48105  1  0
 48106  1  0
 49 50  1  0
 49107  1  0
 50 51  1  0
 50108  1  0
 51 54  1  0
 51109  1  0
 52 55  1  0
 52110  1  0
 53 54  1  0
 53 56  1  1
 53111  1  0
 54112  1  0
 55 58  1  0
 55113  1  0
 56114  1  0
 56115  1  0
 57 62  1  0
 57116  1  0
 58 60  1  0
 58117  1  0
 59 60  1  0
 59 63  1  1
 59118  1  0
 60120  1  0
 61 64  1  0
 61121  1  0
 62 65  1  0
 62122  1  0
 63124  1  0
 63125  1  0
 64 69  1  0
 64126  1  0
 65 68  1  0
 65127  1  0
 66 72  1  0
 66128  1  0
 67 68  1  0
 67 73  1  6
 67129  1  0
 68131  1  0
 69 71  1  0
 69133  1  0
 70 71  1  0
 70 76  1  1
 70134  1  0
 71136  1  0
 72 74  1  0
 72137  1  0
 73138  1  0
 73139  1  0
 74 77  1  0
 74143  1  0
 75 77  1  0
 75 78  1  1
 75144  1  0
 76145  1  0
 76146  1  0
 77148  1  0
 78153  1  0
 78154  1  0
M  END
> <Name>
71773169

> <OBJECTID>
9223372711167983630

> <PUBCHEM_COMPOUND_CID>
71773169

> <PUBCHEM_COMPOUND_CANONICALIZED>
1

> <PUBCHEM_CACTVS_COMPLEXITY>
2080

> <PUBCHEM_CACTVS_HBOND_ACCEPTOR>
28

> <PUBCHEM_CACTVS_HBOND_DONOR>
17

> <PUBCHEM_CACTVS_ROTATABLE_BOND>
16

> <PUBCHEM_CACTVS_SUBSKEYS>
AAADcfB8PgAAAAAAAAAAAAAAAAAAAYAAAAA0aNEiRgAAAADAAAAAGgAACAAAD1SwgAMCCAAABgCIAgDSCAAAAAAgAAAAAAEAAAgRFBIAIQAiQAAFgAAHIAHI6PyPgAAAAAAAAADAAAYAACAAAYAAAAAAAA==

> <PUBCHEM_IUPAC_OPENEYE_NAME>
[(2S,3R,4S,5S,6R)-4,5-dihydroxy-6-(hydroxymethyl)-3-[(2S,3R,4S,5S,6R)-3,4,5-trihydroxy-6-(hydroxymethyl)tetrahydropyran-2-yl]oxy-tetrahydropyran-2-yl] (1R,4S,5R,9S,10R,13S)-13-[(2S,3R,4S,5R,6R)-5-hydroxy-6-(hydroxymethyl)-3,4-bis[[(2S,3R,4S,5S,6R)-3,4,5-trihydroxy-6-(hydroxymethyl)tetrahydropyran-2-yl]oxy]tetrahydropyran-2-yl]oxy-5,9-dimethyl-14-methylene-tetracyclo[11.2.1.01,10.04,9]hexadecane-5-carboxylate

> <PUBCHEM_IUPAC_CAS_NAME>
(1R,4S,5R,9S,10R,13S)-13-[[(2S,3R,4S,5R,6R)-5-hydroxy-6-(hydroxymethyl)-3,4-bis[[(2S,3R,4S,5S,6R)-3,4,5-trihydroxy-6-(hydroxymethyl)-2-oxanyl]oxy]-2-oxanyl]oxy]-5,9-dimethyl-14-methylene-5-tetracyclo[11.2.1.01,10.04,9]hexadecanecarboxylic acid [(2S,3R,4S,5S,6R)-4,5-dihydroxy-6-(hydroxymethyl)-3-[[(2S,3R,4S,5S,6R)-3,4,5-trihydroxy-6-(hydroxymethyl)-2-oxanyl]oxy]-2-oxanyl] ester

> <PUBCHEM_IUPAC_NAME_MARKUP>
[(2<I>S</I>,3<I>R</I>,4<I>S</I>,5<I>S</I>,6<I>R</I>)-4,5-dihydroxy-6-(hydroxymethyl)-3-[(2<I>S</I>,3<I>R</I>,4<I>S</I>,5<I>S</I>,6<I>R</I>)-3,4,5-trihydroxy-6-(hydroxymethyl)oxan-2-yl]oxyoxan-2-yl] (1<I>R</I>,4<I>S</I>,5<I>R</I>,9<I>S</I>,10<I>R</I>,13<I>S</I>)-13-[(2<I>S</I>,3<I>R</I>,4<I>S</I>,5<I>R</I>,6<I>R</I>)-5-hydroxy-6-(hydroxymethyl)-3,4-bis[[(2<I>S</I>,3<I>R</I>,4<I>S</I>,5<I>S</I>,6<I>R</I>)-3,4,5-trihydroxy-6-(hydroxymethyl)oxan-2-yl]oxy]oxan-2-yl]oxy-5,9-dimethyl-14-methylidenetetracyclo[11.2.1.0<SUP>1,10</SUP>.0<SUP>4,9</SUP>]hexadecane-5-carboxylate

> <PUBCHEM_IUPAC_NAME>
[(2S,3R,4S,5S,6R)-4,5-dihydroxy-6-(hydroxymethyl)-3-[(2S,3R,4S,5S,6R)-3,4,5-trihydroxy-6-(hydroxymethyl)oxan-2-yl]oxyoxan-2-yl] (1R,4S,5R,9S,10R,13S)-13-[(2S,3R,4S,5R,6R)-5-hydroxy-6-(hydroxymethyl)-3,4-bis[[(2S,3R,4S,5S,6R)-3,4,5-trihydroxy-6-(hydroxymethyl)oxan-2-yl]oxy]oxan-2-yl]oxy-5,9-dimethyl-14-methylidenetetracyclo[11.2.1.01,10.04,9]hexadecane-5-carboxylate

> <PUBCHEM_IUPAC_SYSTEMATIC_NAME>
[(2S,3R,4S,5S,6R)-6-(hydroxymethyl)-3-[(2S,3R,4S,5S,6R)-6-(hydroxymethyl)-3,4,5-tris(oxidanyl)oxan-2-yl]oxy-4,5-bis(oxidanyl)oxan-2-yl] (1R,4S,5R,9S,10R,13S)-13-[(2S,3R,4S,5R,6R)-6-(hydroxymethyl)-3,4-bis[[(2S,3R,4S,5S,6R)-6-(hydroxymethyl)-3,4,5-tris(oxidanyl)oxan-2-yl]oxy]-5-oxidanyl-oxan-2-yl]oxy-5,9-dimethyl-14-methylidene-tetracyclo[11.2.1.01,10.04,9]hexadecane-5-carboxylate

> <PUBCHEM_IUPAC_TRADITIONAL_NAME>
(1R,4S,5R,9S,10R,13S)-13-[(2S,3R,4S,5R,6R)-5-hydroxy-6-methylol-3,4-bis[[(2S,3R,4S,5S,6R)-3,4,5-trihydroxy-6-methylol-tetrahydropyran-2-yl]oxy]tetrahydropyran-2-yl]oxy-5,9-dimethyl-14-methylene-tetracyclo[11.2.1.01,10.04,9]hexadecane-5-carboxylic acid [(2S,3R,4S,5S,6R)-4,5-dihydroxy-6-methylol-3-[(2S,3R,4S,5S,6R)-3,4,5-trihydroxy-6-methylol-tetrahydropyran-2-yl]oxy-tetrahydropyran-2-yl] ester

> <PUBCHEM_IUPAC_INCHI>
InChI=1S/C50H80O28/c1-18-11-49-9-5-24-47(2,7-4-8-48(24,3)46(68)77-44-39(34(64)29(59)22(15-54)72-44)75-42-36(66)32(62)27(57)20(13-52)70-42)25(49)6-10-50(18,17-49)78-45-40(76-43-37(67)33(63)28(58)21(14-53)71-43)38(30(60)23(16-55)73-45)74-41-35(65)31(61)26(56)19(12-51)69-41/h19-45,51-67H,1,4-17H2,2-3H3/t19-,20-,21-,22-,23-,24+,25+,26-,27-,28-,29-,30-,31+,32+,33+,34+,35-,36-,37-,38+,39-,40-,41+,42+,43+,44+,45+,47-,48-,49-,50+/m1/s1

> <PUBCHEM_IUPAC_INCHIKEY>
RPYRMTHVSUWHSV-CUZJHZIBSA-N

> <PUBCHEM_XLOGP3_AA>
-4.4

> <PUBCHEM_EXACT_MASS>
1128.48361189

> <PUBCHEM_MOLECULAR_FORMULA>
C50H80O28

> <PUBCHEM_MOLECULAR_WEIGHT>
1129.2

> <PUBCHEM_OPENEYE_CAN_SMILES>
CC12CCCC(C1CCC34C2CCC(C3)(C(=C)C4)OC5C(C(C(C(O5)CO)O)OC6C(C(C(C(O6)CO)O)O)O)OC7C(C(C(C(O7)CO)O)O)O)(C)C(=O)OC8C(C(C(C(O8)CO)O)O)OC9C(C(C(C(O9)CO)O)O)O

> <PUBCHEM_OPENEYE_ISO_SMILES>
C[C@@]12CCC[C@@]([C@H]1CC[C@]34[C@H]2CC[C@](C3)(C(=C)C4)O[C@H]5[C@@H]([C@H]([C@@H]([C@H](O5)CO)O)O[C@H]6[C@@H]([C@H]([C@@H]([C@H](O6)CO)O)O)O)O[C@H]7[C@@H]([C@H]([C@@H]([C@H](O7)CO)O)O)O)(C)C(=O)O[C@H]8[C@@H]([C@H]([C@@H]([C@H](O8)CO)O)O)O[C@H]9[C@@H]([C@H]([C@@H]([C@H](O9)CO)O)O)O

> <PUBCHEM_CACTVS_TPSA>
453

> <PUBCHEM_MONOISOTOPIC_WEIGHT>
1128.48361189

> <PUBCHEM_TOTAL_CHARGE>
0

> <PUBCHEM_HEAVY_ATOM_COUNT>
78

> <PUBCHEM_ATOM_DEF_STEREO_COUNT>
31

> <PUBCHEM_ATOM_UDEF_STEREO_COUNT>
0

> <PUBCHEM_BOND_DEF_STEREO_COUNT>
0

> <PUBCHEM_BOND_UDEF_STEREO_COUNT>
0

> <PUBCHEM_ISOTOPIC_ATOM_COUNT>
0

> <PUBCHEM_COMPONENT_COUNT>
1

> <PUBCHEM_CACTVS_TAUTO_COUNT>
1

> <PUBCHEM_COORDINATE_TYPE>
1
5
255

> <PUBCHEM_BONDANNOTATIONS>
34  1  6
49  1  5
58  12  5
60  14  6
62  15  5
64  18  6
65  19  6
52  2  5
68  20  5
69  21  5
71  22  6
72  23  6
74  25  5
77  27  6
29  35  6
30  79  5
31  43  6
32  80  5
39  46  5
50  5  6
57  5  6
53  56  5
59  63  5
51  6  5
61  6  5
67  73  6
70  76  5
75  78  5
54  8  6
55  9  6
66  9  5

$$$$
72941582
  SciTegic09112316442D

115121  0  0  1  0            999 V2000
    6.8671   -2.6210    0.0000 O   0  0
   10.1678    4.2290    0.0000 O   0  0
    8.4778    4.6079    0.0000 O   0  0
    5.1350   -2.6210    0.0000 O   0  0
    6.8671   -4.6210    0.0000 O   0  0
    9.6509    5.8821    0.0000 O   0  0
    5.1350   -5.6210    0.0000 O   0  0
    3.4030   -4.6210    0.0000 O   0  0
   12.0767    4.8259    0.0000 O   0  0
    6.0010   -6.1210    0.0000 O   0  0
    2.5369   -3.1210    0.0000 O   0  0
   12.5142    6.7774    0.0000 O   0  0
   11.0429    8.1321    0.0000 O   0  0
    8.5991   -5.6210    0.0000 O   0  0
    8.5991   -7.6210    0.0000 O   0  0
    9.3528    8.5110    0.0000 O   0  0
    6.8671   -8.6210    0.0000 O   0  0
    6.8671    0.6260    0.0000 C   0  0  2  0  0  0
    7.8420    0.4035    0.0000 C   0  0  2  0  0  0
    8.5622    1.1561    0.0000 C   0  0  1  0  0  0
    8.2628    2.1538    0.0000 C   0  0  2  0  0  0
    7.2331   -0.4975    0.0000 C   0  0
    6.8671   -1.6210    0.0000 C   0  0  2  0  0  0
    6.5447    1.6165    0.0000 C   0  0
    8.2759   -0.4975    0.0000 C   0  0
    6.0852    0.0025    0.0000 C   0  0
    7.2473    2.3855    0.0000 C   0  0
    8.9946    2.9548    0.0000 C   0  0  2  0  0  0
    9.6141    0.8902    0.0000 C   0  0
    7.8420   -1.3984    0.0000 C   0  0
    6.0852   -0.9975    0.0000 C   0  0
    9.1598    0.3543    0.0000 C   0  0
   10.0524    2.7133    0.0000 C   0  0
   10.3643    1.6741    0.0000 C   0  0
    8.2590    3.6321    0.0000 C   0  0
    9.2134    3.9306    0.0000 C   0  0
    5.1843   -1.4313    0.0000 C   0  0
    6.0010   -3.1210    0.0000 C   0  0  2  0  0  0
    6.0010   -4.1210    0.0000 C   0  0  1  0  0  0
    5.1350   -4.6210    0.0000 C   0  0  2  0  0  0
   10.3866    5.2048    0.0000 C   0  0  2  0  0  0
    4.2690   -3.1210    0.0000 C   0  0  1  0  0  0
    4.2690   -4.1210    0.0000 C   0  0  1  0  0  0
   11.3410    5.5032    0.0000 C   0  0  1  0  0  0
    3.4030   -2.6210    0.0000 C   0  0
    6.8671   -5.6210    0.0000 C   0  0  2  0  0  0
   11.5598    6.4790    0.0000 C   0  0  2  0  0  0
    9.8697    6.8579    0.0000 C   0  0  1  0  0  0
   10.8241    7.1563    0.0000 C   0  0  1  0  0  0
    7.7331   -6.1210    0.0000 C   0  0  1  0  0  0
    7.7331   -7.1210    0.0000 C   0  0  1  0  0  0
    9.1340    7.5352    0.0000 C   0  0
    6.0010   -7.1210    0.0000 C   0  0  2  0  0  0
    6.8671   -7.6210    0.0000 C   0  0  2  0  0  0
    5.1350   -7.6210    0.0000 C   0  0
    8.6707    0.2144    0.0000 H   0  0
    8.0092    2.9650    0.0000 H   0  0
    7.7346   -0.8620    0.0000 H   0  0
    7.7346   -0.1329    0.0000 H   0  0
    6.1653    2.1069    0.0000 H   0  0
    5.9967    1.3266    0.0000 H   0  0
    8.7606   -0.8840    0.0000 H   0  0
    8.7606   -0.1109    0.0000 H   0  0
    5.8162    0.5611    0.0000 H   0  0
    5.4808   -0.1354    0.0000 H   0  0
    7.4867    2.9575    0.0000 H   0  0
    6.7248    2.7192    0.0000 H   0  0
    9.3616    0.3240    0.0000 H   0  0
   10.1288    0.5445    0.0000 H   0  0
    7.8420   -2.0184    0.0000 H   0  0
    8.4464   -1.5364    0.0000 H   0  0
    8.6627   -0.0162    0.0000 H   0  0
    9.5304   -0.1428    0.0000 H   0  0
    9.6569    0.7248    0.0000 H   0  0
   10.6680    2.7873    0.0000 H   0  0
   10.0849    3.3325    0.0000 H   0  0
   10.7322    1.1751    0.0000 H   0  0
   10.9189    1.9513    0.0000 H   0  0
    8.6789    4.0882    0.0000 H   0  0
    7.8029    4.0521    0.0000 H   0  0
    7.8390    3.1760    0.0000 H   0  0
    4.6720   -1.0821    0.0000 H   0  0
    5.1379   -2.0496    0.0000 H   0  0
    6.0010   -2.5010    0.0000 H   0  0
    6.0010   -4.7410    0.0000 H   0  0
    4.5981   -4.9310    0.0000 H   0  0
   10.8427    4.7848    0.0000 H   0  0
    4.2690   -2.5010    0.0000 H   0  0
    4.2690   -4.7410    0.0000 H   0  0
   11.9328    5.6882    0.0000 H   0  0
    3.8015   -2.1460    0.0000 H   0  0
    3.0044   -2.1460    0.0000 H   0  0
    7.4040   -5.3110    0.0000 H   0  0
    4.5981   -5.9310    0.0000 H   0  0
   11.6954    7.0840    0.0000 H   0  0
    9.2780    6.6728    0.0000 H   0  0
    3.4030   -5.2410    0.0000 H   0  0
   10.3680    7.5763    0.0000 H   0  0
    8.2700   -6.4310    0.0000 H   0  0
   12.6685    5.0109    0.0000 H   0  0
    2.0000   -2.8110    0.0000 H   0  0
    7.7331   -7.7410    0.0000 H   0  0
    8.5618    7.7738    0.0000 H   0  0
    8.7997    7.0131    0.0000 H   0  0
    5.4641   -6.8110    0.0000 H   0  0
   12.6499    7.3824    0.0000 H   0  0
    7.4040   -7.9310    0.0000 H   0  0
   11.6346    8.3171    0.0000 H   0  0
    9.1360   -5.9310    0.0000 H   0  0
    4.8250   -7.0840    0.0000 H   0  0
    4.5981   -7.9310    0.0000 H   0  0
    5.4450   -8.1579    0.0000 H   0  0
    8.5991   -8.2410    0.0000 H   0  0
    8.8967    8.9310    0.0000 H   0  0
    6.3301   -8.9310    0.0000 H   0  0
 23  1  1  6
 38  1  1  1
  2 36  1  0
 41  2  1  6
  3 36  2  0
  4 38  1  0
  4 42  1  0
 39  5  1  6
 46  5  1  1
  6 41  1  0
  6 48  1  0
 40  7  1  1
  7 94  1  0
 43  8  1  6
  8 97  1  0
 44  9  1  1
  9100  1  0
 10 46  1  0
 10 53  1  0
 11 45  1  0
 11101  1  0
 47 12  1  6
 12106  1  0
 49 13  1  1
 13108  1  0
 50 14  1  6
 14109  1  0
 51 15  1  6
 15113  1  0
 16 52  1  0
 16114  1  0
 54 17  1  1
 17115  1  0
 18 19  1  0
 18 22  1  0
 18 24  1  6
 18 26  1  0
 19 20  1  0
 19 25  1  0
 19 56  1  1
 20 21  1  0
 20 29  1  0
 20 32  1  6
 21 27  1  0
 21 28  1  0
 21 57  1  1
 22 23  1  0
 22 58  1  0
 22 59  1  0
 23 30  1  0
 23 31  1  0
 24 27  1  0
 24 60  1  0
 24 61  1  0
 25 30  1  0
 25 62  1  0
 25 63  1  0
 26 31  1  0
 26 64  1  0
 26 65  1  0
 27 66  1  0
 27 67  1  0
 28 33  1  0
 28 35  1  1
 28 36  1  0
 29 34  1  0
 29 68  1  0
 29 69  1  0
 30 70  1  0
 30 71  1  0
 31 37  2  0
 32 72  1  0
 32 73  1  0
 32 74  1  0
 33 34  1  0
 33 75  1  0
 33 76  1  0
 34 77  1  0
 34 78  1  0
 35 79  1  0
 35 80  1  0
 35 81  1  0
 37 82  1  0
 37 83  1  0
 38 39  1  0
 38 84  1  0
 39 40  1  0
 39 85  1  0
 40 43  1  0
 40 86  1  0
 41 44  1  0
 41 87  1  0
 42 43  1  0
 42 45  1  1
 42 88  1  0
 43 89  1  0
 44 47  1  0
 44 90  1  0
 45 91  1  0
 45 92  1  0
 46 50  1  0
 46 93  1  0
 47 49  1  0
 47 95  1  0
 48 49  1  0
 48 52  1  6
 48 96  1  0
 49 98  1  0
 50 51  1  0
 50 99  1  0
 51 54  1  0
 51102  1  0
 52103  1  0
 52104  1  0
 53 54  1  0
 53 55  1  6
 53105  1  0
 54107  1  0
 55110  1  0
 55111  1  0
 55112  1  0
M  END
> <Name>
72941582

> <OBJECTID>
9223372715462950926

> <PUBCHEM_COMPOUND_CID>
72941582

> <PUBCHEM_COMPOUND_CANONICALIZED>
1

> <PUBCHEM_CACTVS_COMPLEXITY>
1430

> <PUBCHEM_CACTVS_HBOND_ACCEPTOR>
17

> <PUBCHEM_CACTVS_HBOND_DONOR>
10

> <PUBCHEM_CACTVS_ROTATABLE_BOND>
9

> <PUBCHEM_CACTVS_SUBSKEYS>
AAADcfB8PgAAAAAAAAAAAAAAAAAAAYAAAAA0aNECBgAAAADAAAAAGgAACAAAD1SwgAMCCAAABgCIAgDSCAAAAAAgAAAAAAEAAAgRFBIAIQAiQAAFgAAHIAHI6PyPgAAAAAAAAADAAAYAACAAAYAAAAAAAA==

> <PUBCHEM_IUPAC_OPENEYE_NAME>
[(2S,3R,4S,5S,6R)-3,4,5-trihydroxy-6-(hydroxymethyl)tetrahydropyran-2-yl] (1R,4S,5R,9S,10R,13S)-13-[(2S,3R,4S,5S,6R)-4,5-dihydroxy-6-(hydroxymethyl)-3-[(2S,3R,4R,5R,6S)-3,4,5-trihydroxy-6-methyl-tetrahydropyran-2-yl]oxy-tetrahydropyran-2-yl]oxy-5,9-dimethyl-14-methylene-tetracyclo[11.2.1.01,10.04,9]hexadecane-5-carboxylate

> <PUBCHEM_IUPAC_CAS_NAME>
(1R,4S,5R,9S,10R,13S)-13-[[(2S,3R,4S,5S,6R)-4,5-dihydroxy-6-(hydroxymethyl)-3-[[(2S,3R,4R,5R,6S)-3,4,5-trihydroxy-6-methyl-2-oxanyl]oxy]-2-oxanyl]oxy]-5,9-dimethyl-14-methylene-5-tetracyclo[11.2.1.01,10.04,9]hexadecanecarboxylic acid [(2S,3R,4S,5S,6R)-3,4,5-trihydroxy-6-(hydroxymethyl)-2-oxanyl] ester

> <PUBCHEM_IUPAC_NAME_MARKUP>
[(2<I>S</I>,3<I>R</I>,4<I>S</I>,5<I>S</I>,6<I>R</I>)-3,4,5-trihydroxy-6-(hydroxymethyl)oxan-2-yl] (1<I>R</I>,4<I>S</I>,5<I>R</I>,9<I>S</I>,10<I>R</I>,13<I>S</I>)-13-[(2<I>S</I>,3<I>R</I>,4<I>S</I>,5<I>S</I>,6<I>R</I>)-4,5-dihydroxy-6-(hydroxymethyl)-3-[(2<I>S</I>,3<I>R</I>,4<I>R</I>,5<I>R</I>,6<I>S</I>)-3,4,5-trihydroxy-6-methyloxan-2-yl]oxyoxan-2-yl]oxy-5,9-dimethyl-14-methylidenetetracyclo[11.2.1.0<SUP>1,10</SUP>.0<SUP>4,9</SUP>]hexadecane-5-carboxylate

> <PUBCHEM_IUPAC_NAME>
[(2S,3R,4S,5S,6R)-3,4,5-trihydroxy-6-(hydroxymethyl)oxan-2-yl] (1R,4S,5R,9S,10R,13S)-13-[(2S,3R,4S,5S,6R)-4,5-dihydroxy-6-(hydroxymethyl)-3-[(2S,3R,4R,5R,6S)-3,4,5-trihydroxy-6-methyloxan-2-yl]oxyoxan-2-yl]oxy-5,9-dimethyl-14-methylidenetetracyclo[11.2.1.01,10.04,9]hexadecane-5-carboxylate

> <PUBCHEM_IUPAC_SYSTEMATIC_NAME>
[(2S,3R,4S,5S,6R)-6-(hydroxymethyl)-3,4,5-tris(oxidanyl)oxan-2-yl] (1R,4S,5R,9S,10R,13S)-13-[(2S,3R,4S,5S,6R)-6-(hydroxymethyl)-3-[(2S,3R,4R,5R,6S)-6-methyl-3,4,5-tris(oxidanyl)oxan-2-yl]oxy-4,5-bis(oxidanyl)oxan-2-yl]oxy-5,9-dimethyl-14-methylidene-tetracyclo[11.2.1.01,10.04,9]hexadecane-5-carboxylate

> <PUBCHEM_IUPAC_TRADITIONAL_NAME>
(1R,4S,5R,9S,10R,13S)-13-[(2S,3R,4S,5S,6R)-4,5-dihydroxy-6-methylol-3-[(2S,3R,4R,5R,6S)-3,4,5-trihydroxy-6-methyl-tetrahydropyran-2-yl]oxy-tetrahydropyran-2-yl]oxy-5,9-dimethyl-14-methylene-tetracyclo[11.2.1.01,10.04,9]hexadecane-5-carboxylic acid [(2S,3R,4S,5S,6R)-3,4,5-trihydroxy-6-methylol-tetrahydropyran-2-yl] ester

> <PUBCHEM_IUPAC_INCHI>
InChI=1S/C38H60O17/c1-16-12-37-10-6-20-35(3,8-5-9-36(20,4)34(49)54-32-29(48)26(45)23(42)18(13-39)51-32)21(37)7-11-38(16,15-37)55-33-30(27(46)24(43)19(14-40)52-33)53-31-28(47)25(44)22(41)17(2)50-31/h17-33,39-48H,1,5-15H2,2-4H3/t17-,18+,19+,20-,21-,22-,23+,24+,25+,26-,27-,28+,29+,30+,31-,32-,33-,35+,36+,37+,38-/m0/s1

> <PUBCHEM_IUPAC_INCHIKEY>
CANAPGLEBDTCAF-NTIPNFSCSA-N

> <PUBCHEM_XLOGP3_AA>
-0.7

> <PUBCHEM_EXACT_MASS>
788.38305044

> <PUBCHEM_MOLECULAR_FORMULA>
C38H60O17

> <PUBCHEM_MOLECULAR_WEIGHT>
788.9

> <PUBCHEM_OPENEYE_CAN_SMILES>
CC1C(C(C(C(O1)OC2C(C(C(OC2OC34CCC5C6(CCCC(C6CCC5(C3)CC4=C)(C)C(=O)OC7C(C(C(C(O7)CO)O)O)O)C)CO)O)O)O)O)O

> <PUBCHEM_OPENEYE_ISO_SMILES>
C[C@H]1[C@@H]([C@H]([C@H]([C@@H](O1)O[C@@H]2[C@H]([C@@H]([C@H](O[C@H]2O[C@@]34CC[C@H]5[C@@]6(CCC[C@@]([C@H]6CC[C@]5(C3)CC4=C)(C)C(=O)O[C@H]7[C@@H]([C@H]([C@@H]([C@H](O7)CO)O)O)O)C)CO)O)O)O)O)O

> <PUBCHEM_CACTVS_TPSA>
275

> <PUBCHEM_MONOISOTOPIC_WEIGHT>
788.38305044

> <PUBCHEM_TOTAL_CHARGE>
0

> <PUBCHEM_HEAVY_ATOM_COUNT>
55

> <PUBCHEM_ATOM_DEF_STEREO_COUNT>
21

> <PUBCHEM_ATOM_UDEF_STEREO_COUNT>
0

> <PUBCHEM_BOND_DEF_STEREO_COUNT>
0

> <PUBCHEM_BOND_UDEF_STEREO_COUNT>
0

> <PUBCHEM_ISOTOPIC_ATOM_COUNT>
0

> <PUBCHEM_COMPONENT_COUNT>
1

> <PUBCHEM_CACTVS_TAUTO_COUNT>
1

> <PUBCHEM_COORDINATE_TYPE>
1
5
255

> <PUBCHEM_BONDANNOTATIONS>
23  1  6
38  1  5
47  12  6
49  13  5
50  14  6
51  15  6
54  17  5
18  24  6
19  56  5
41  2  6
20  32  6
21  57  5
28  35  5
42  45  5
48  52  6
39  5  6
46  5  5
53  55  6
40  7  5
43  8  6
44  9  5

$$$$
88879608
  SciTegic09112316442D

 69 68  0  0  1  0            999 V2000
    7.1962   -3.5950    0.0000 O   0  0
    5.4641   -3.5950    0.0000 O   0  0
    3.7320   -2.5950    0.0000 O   0  0
    2.8660   -1.0950    0.0000 O   0  0
    8.0622   -2.0950    0.0000 C   0  0
    8.9282   -2.5950    0.0000 C   0  0
    7.1962   -2.5950    0.0000 C   0  0
    9.7942   -2.0950    0.0000 C   0  0
   10.6603   -2.5950    0.0000 C   0  0
    6.3301   -2.0950    0.0000 C   0  0
   11.5263   -2.0950    0.0000 C   0  0
    5.4641   -2.5950    0.0000 C   0  0
   12.3923   -2.5950    0.0000 C   0  0
   13.2583   -2.0950    0.0000 C   0  0
    4.5981   -2.0950    0.0000 C   0  0
   14.1244   -2.5950    0.0000 C   0  0
   14.9904    1.9050    0.0000 C   0  0
   14.9904   -2.0950    0.0000 C   0  0
   14.1244    2.4050    0.0000 C   0  0
   14.9904    0.9050    0.0000 C   0  0
   14.9904   -1.0950    0.0000 C   0  0
   14.1244    3.4050    0.0000 C   0  0
   15.8564    0.4050    0.0000 C   0  0
   15.8564   -0.5950    0.0000 C   0  0
    2.8660   -2.0950    0.0000 C   0  0
   13.2583    3.9050    0.0000 C   0  0
    2.0000   -2.5950    0.0000 C   0  0
    8.4607   -1.6200    0.0000 H   0  0
    7.6636   -1.6200    0.0000 H   0  0
    8.5297   -3.0700    0.0000 H   0  0
    9.3267   -3.0700    0.0000 H   0  0
    6.6592   -2.9050    0.0000 H   0  0
   10.1928   -1.6200    0.0000 H   0  0
    9.3957   -1.6200    0.0000 H   0  0
   10.2617   -3.0700    0.0000 H   0  0
   11.0588   -3.0700    0.0000 H   0  0
    6.7287   -1.6200    0.0000 H   0  0
    5.9316   -1.6200    0.0000 H   0  0
   11.9248   -1.6200    0.0000 H   0  0
   11.1278   -1.6200    0.0000 H   0  0
    6.0010   -2.9050    0.0000 H   0  0
   11.9938   -3.0700    0.0000 H   0  0
   12.7908   -3.0700    0.0000 H   0  0
   13.6569   -1.6200    0.0000 H   0  0
   12.8598   -1.6200    0.0000 H   0  0
    4.9966   -1.6200    0.0000 H   0  0
    4.1996   -1.6200    0.0000 H   0  0
    7.7331   -3.9050    0.0000 H   0  0
    4.9272   -3.9050    0.0000 H   0  0
   14.1244   -3.2150    0.0000 H   0  0
   15.6010    1.7973    0.0000 H   0  0
   15.2024    2.4876    0.0000 H   0  0
   15.5273   -2.4050    0.0000 H   0  0
   13.5138    2.5127    0.0000 H   0  0
   13.9123    1.8224    0.0000 H   0  0
   14.3798    1.0127    0.0000 H   0  0
   14.7783    0.3224    0.0000 H   0  0
   14.7783   -0.5124    0.0000 H   0  0
   14.3798   -1.2027    0.0000 H   0  0
   14.7349    3.2973    0.0000 H   0  0
   14.3364    3.9876    0.0000 H   0  0
   16.3933    0.7150    0.0000 H   0  0
   16.3933   -0.9050    0.0000 H   0  0
   13.5683    4.4419    0.0000 H   0  0
   12.7214    4.2150    0.0000 H   0  0
   12.9483    3.3681    0.0000 H   0  0
    1.6900   -2.0581    0.0000 H   0  0
    1.4631   -2.9050    0.0000 H   0  0
    2.3100   -3.1319    0.0000 H   0  0
  1  7  1  0
  1 48  1  0
  2 12  1  0
  2 49  1  0
  3 15  1  0
  3 25  1  0
  4 25  2  0
  5  6  1  0
  5  7  1  0
  5 28  1  0
  5 29  1  0
  6  8  1  0
  6 30  1  0
  6 31  1  0
  7 10  1  0
  7 32  1  0
  8  9  1  0
  8 33  1  0
  8 34  1  0
  9 11  1  0
  9 35  1  0
  9 36  1  0
 10 12  1  0
 10 37  1  0
 10 38  1  0
 11 13  1  0
 11 39  1  0
 11 40  1  0
 12 15  1  0
 12 41  1  0
 13 14  1  0
 13 42  1  0
 13 43  1  0
 14 16  1  0
 14 44  1  0
 14 45  1  0
 15 46  1  0
 15 47  1  0
 16 18  2  0
 16 50  1  0
 17 19  1  0
 17 20  1  0
 17 51  1  0
 17 52  1  0
 18 21  1  0
 18 53  1  0
 19 22  1  0
 19 54  1  0
 19 55  1  0
 20 23  1  0
 20 56  1  0
 20 57  1  0
 21 24  1  0
 21 58  1  0
 21 59  1  0
 22 26  1  0
 22 60  1  0
 22 61  1  0
 23 24  2  0
 23 62  1  0
 24 63  1  0
 25 27  1  0
 26 64  1  0
 26 65  1  0
 26 66  1  0
 27 67  1  0
 27 68  1  0
 27 69  1  0
M  END
> <Name>
88879608

> <OBJECTID>
9223372719757918222

> <PUBCHEM_COMPOUND_CID>
88879608

> <PUBCHEM_COMPOUND_CANONICALIZED>
1

> <PUBCHEM_CACTVS_COMPLEXITY>
390

> <PUBCHEM_CACTVS_HBOND_ACCEPTOR>
4

> <PUBCHEM_CACTVS_HBOND_DONOR>
2

> <PUBCHEM_CACTVS_ROTATABLE_BOND>
19

> <PUBCHEM_CACTVS_SUBSKEYS>
AAADcfB4OAAAAAAAAAAAAAAAAAAAAAAAAAAAAAAAAAAAAAAAAAAAGgAACAAACBSggAICCAAABgCIACDSCAAAAAAgAAAICAAAAAgBEAIAAQACQAAFgAALAAPAwKAAAAAAAAAAAAAAAAAAAAAAAAAAAAAAAA==

> <PUBCHEM_IUPAC_OPENEYE_NAME>
[(12Z,15Z)-2,4-dihydroxyhenicosa-12,15-dienyl] acetate

> <PUBCHEM_IUPAC_CAS_NAME>
acetic acid [(12Z,15Z)-2,4-dihydroxyheneicosa-12,15-dienyl] ester

> <PUBCHEM_IUPAC_NAME_MARKUP>
[(12<I>Z</I>,15<I>Z</I>)-2,4-dihydroxyhenicosa-12,15-dienyl] acetate

> <PUBCHEM_IUPAC_NAME>
[(12Z,15Z)-2,4-dihydroxyhenicosa-12,15-dienyl] acetate

> <PUBCHEM_IUPAC_SYSTEMATIC_NAME>
[(12Z,15Z)-2,4-bis(oxidanyl)henicosa-12,15-dienyl] ethanoate

> <PUBCHEM_IUPAC_TRADITIONAL_NAME>
acetic acid [(12Z,15Z)-2,4-dihydroxyheneicosa-12,15-dienyl] ester

> <PUBCHEM_IUPAC_INCHI>
InChI=1S/C23H42O4/c1-3-4-5-6-7-8-9-10-11-12-13-14-15-16-17-18-22(25)19-23(26)20-27-21(2)24/h7-8,10-11,22-23,25-26H,3-6,9,12-20H2,1-2H3/b8-7-,11-10-

> <PUBCHEM_IUPAC_INCHIKEY>
GSWQTBYGARPWQP-NQLNTKRDSA-N

> <PUBCHEM_XLOGP3_AA>
6.5

> <PUBCHEM_EXACT_MASS>
382.30830982

> <PUBCHEM_MOLECULAR_FORMULA>
C23H42O4

> <PUBCHEM_MOLECULAR_WEIGHT>
382.6

> <PUBCHEM_OPENEYE_CAN_SMILES>
CCCCCC=CCC=CCCCCCCCC(CC(COC(=O)C)O)O

> <PUBCHEM_OPENEYE_ISO_SMILES>
CCCCC/C=C\C/C=C\CCCCCCCC(CC(COC(=O)C)O)O

> <PUBCHEM_CACTVS_TPSA>
66.8

> <PUBCHEM_MONOISOTOPIC_WEIGHT>
382.30830982

> <PUBCHEM_TOTAL_CHARGE>
0

> <PUBCHEM_HEAVY_ATOM_COUNT>
27

> <PUBCHEM_ATOM_DEF_STEREO_COUNT>
0

> <PUBCHEM_ATOM_UDEF_STEREO_COUNT>
2

> <PUBCHEM_BOND_DEF_STEREO_COUNT>
2

> <PUBCHEM_BOND_UDEF_STEREO_COUNT>
0

> <PUBCHEM_ISOTOPIC_ATOM_COUNT>
0

> <PUBCHEM_COMPONENT_COUNT>
1

> <PUBCHEM_CACTVS_TAUTO_COUNT>
-1

> <PUBCHEM_COORDINATE_TYPE>
1
5
255

> <PUBCHEM_BONDANNOTATIONS>
7  1  3
12  2  3

$$$$
91064206
  SciTegic09112316443D

 31 31  0  0  0  0            999 V2000
    0.4292   -2.8760   -0.0762 O   0  0
   -0.4989    1.7807   -0.7470 O   0  0
    3.8845    0.3598    0.4679 O   0  0
   -0.0658   -0.5552   -0.4198 C   0  0
   -1.5012   -0.8882   -0.7416 C   0  0
    0.8319   -1.5743   -0.1019 C   0  0
    0.3639    0.7717   -0.4395 C   0  0
   -2.4336   -0.5485    0.3871 C   0  0
   -3.4848    0.2931    0.3671 C   0  0
    2.1593   -1.2667    0.1963 C   0  0
    1.6913    1.0794   -0.1414 C   0  0
    2.5891    0.0602    0.1765 C   0  0
   -3.8406    1.0375   -0.8924 C   0  0
   -4.3810    0.5898    1.5357 C   0  0
    4.2566    1.7367    0.4291 C   0  0
   -1.7577   -0.4226   -1.6961 H   0  0
   -1.6141   -1.9611   -0.9413 H   0  0
   -2.2271   -1.0658    1.3239 H   0  0
    2.8653   -2.0552    0.4454 H   0  0
    1.9734    2.1266   -0.1708 H   0  0
   -4.7506    0.6127   -1.3292 H   0  0
   -4.0428    2.0884   -0.6541 H   0  0
   -3.0714    1.0538   -1.6640 H   0  0
   -4.3322    1.6519    1.7963 H   0  0
   -5.4180    0.3342    1.2954 H   0  0
   -4.0912    0.0145    2.4212 H   0  0
    1.1857   -3.4380    0.1641 H   0  0
   -0.0271    2.6301   -0.7090 H   0  0
    5.3196    1.7911    0.6861 H   0  0
    3.7164    2.3213    1.1815 H   0  0
    4.1503    2.1545   -0.5778 H   0  0
  1  6  1  0
  1 27  1  0
  2  7  1  0
  2 28  1  0
  3 12  1  0
  3 15  1  0
  4  5  1  0
  4  6  2  0
  4  7  1  0
  5  8  1  0
  5 16  1  0
  5 17  1  0
  6 10  1  0
  7 11  2  0
  8  9  2  0
  8 18  1  0
  9 13  1  0
  9 14  1  0
 10 12  2  0
 10 19  1  0
 11 12  1  0
 11 20  1  0
 13 21  1  0
 13 22  1  0
 13 23  1  0
 14 24  1  0
 14 25  1  0
 14 26  1  0
 15 29  1  0
 15 30  1  0
 15 31  1  0
M  END
> <Name>
91064206

> <OBJECTID>
9223372724052885518

> <PUBCHEM_COMPOUND_CID>
91064206

> <PUBCHEM_CONFORMER_RMSD>
0.6

> <PUBCHEM_CONFORMER_DIVERSEORDER>
3
14
8
6
11
1
13
10
2
5
12
7
9
4

> <PUBCHEM_MMFF94_PARTIAL_CHARGES>
20
1 -0.53
10 -0.15
11 -0.15
12 0.08
13 0.14
14 0.14
15 0.28
18 0.15
19 0.15
2 -0.53
20 0.15
27 0.45
28 0.45
3 -0.36
4 -0.14
5 0.28
6 0.08
7 0.08
8 -0.29
9 -0.28

> <PUBCHEM_EFFECTIVE_ROTOR_COUNT>
3

> <PUBCHEM_PHARMACOPHORE_FEATURES>
5
1 1 donor
1 2 donor
1 3 acceptor
3 9 13 14 hydrophobe
6 4 6 7 10 11 12 rings

> <PUBCHEM_HEAVY_ATOM_COUNT>
15

> <PUBCHEM_ATOM_DEF_STEREO_COUNT>
0

> <PUBCHEM_ATOM_UDEF_STEREO_COUNT>
0

> <PUBCHEM_BOND_DEF_STEREO_COUNT>
0

> <PUBCHEM_BOND_UDEF_STEREO_COUNT>
0

> <PUBCHEM_ISOTOPIC_ATOM_COUNT>
0

> <PUBCHEM_COMPONENT_COUNT>
1

> <PUBCHEM_CACTVS_TAUTO_COUNT>
5

> <PUBCHEM_CONFORMER_ID>
056D878E00000003

> <PUBCHEM_MMFF94_ENERGY>
41.4662

> <PUBCHEM_FEATURE_SELFOVERLAP>
25.372

> <PUBCHEM_SHAPE_FINGERPRINT>
10219947 1 18408040701866144207
10382601 240 18336553715676931538
10465860 228 18271534104142358410
10980938 120 18410012109151116863
11132069 177 18334572460132149668
11471102 20 18338227180932406727
11471102 22 18187376423527401083
11543360 7 15410606047065406132
11769659 78 11963386362307511099
12251169 10 18041283257067303467
12346645 44 18343301470096974288
12382932 28 18335419075648700403
124424 183 17385716994153054477
13214271 11 18261669363248611335
13583140 156 16371824388192458500
13675066 3 18040152911552869769
13705890 14 9079112254510283098
14252887 29 18113909225349120787
15209294 21 18202559614055546000
15219456 202 18188769444651369565
15309172 13 18409727378430790814
15375358 24 18114455674407598677
15502708 68 18410572855607110074
15775835 57 18131634495376712515
16945 1 18338232665637389647
18186145 218 18343588442795354222
19049666 15 17679865904063567431
19784866 170 18260832583302412828
200 152 18272079540163405503
201361 129 18129952165044779987
20279233 1 17894633626312792991
204376 136 18411982498201376883
20645477 70 18265603287299466727
21524375 3 18270961370359048855
23402539 116 18200581601564637116
23557571 272 14549020992436719617
2748010 2 18191289491232585886
276578 36 18343026588042911938
293599 30 18339928216248255652
449060 23 11819265646740562345
53812653 166 18341889723126741192
633830 44 17988934352769400716
7364860 26 18128539267018380950

> <PUBCHEM_SHAPE_MULTIPOLES>
291.09
7.56
2.01
0.96
1.95
0.89
0.13
-3.97
2.39
-1.09
-0.13
0.93
-0.21
0.13

> <PUBCHEM_SHAPE_SELFOVERLAP>
597.08

> <PUBCHEM_SHAPE_VOLUME>
169.3

> <PUBCHEM_COORDINATE_TYPE>
2
5
10

$$$$
101129992
  SciTegic09112316443D

 39 40  0  0  1  0            999 V2000
    1.6528   -2.2871    0.1504 O   0  0
    0.4786    2.8453    0.7038 O   0  0
    1.9425    1.1998    0.0347 N   0  0
    0.1023   -0.6314    0.5406 N   0  0
    2.1205   -0.0554   -0.6805 C   0  0  1  0  0  0
    3.5906   -0.4289   -0.7817 C   0  0  2  0  0  0
   -0.4237    0.6647    0.1381 C   0  0  2  0  0  0
    4.2606   -0.5886    0.5980 C   0  0
    1.3163   -1.1083    0.0701 C   0  0
    0.6858    1.6817    0.3684 C   0  0
   -1.6841    1.0134    0.9133 C   0  0
    4.3465    0.6260   -1.5987 C   0  0
    5.7351   -0.9569    0.5160 C   0  0
   -2.8973    0.3164    0.3547 C   0  0
   -3.6556    0.9282   -0.6434 C   0  0
   -3.2623   -0.9408    0.8360 C   0  0
   -4.7790    0.2827   -1.1603 C   0  0
   -4.3856   -1.5863    0.3192 C   0  0
   -5.1440   -0.9745   -0.6789 C   0  0
    1.6767    0.0576   -1.6775 H   0  0
    3.6716   -1.3847   -1.3166 H   0  0
   -0.6135    0.6301   -0.9425 H   0  0
    3.7574   -1.3706    1.1762 H   0  0
    4.1727    0.3342    1.1839 H   0  0
    2.7172    1.8517    0.1062 H   0  0
   -0.5109   -1.2962    1.0009 H   0  0
   -1.8772    2.0937    0.8844 H   0  0
   -1.5723    0.7712    1.9788 H   0  0
    4.5123    1.5520   -1.0389 H   0  0
    3.7997    0.8758   -2.5148 H   0  0
    5.3253    0.2490   -1.9138 H   0  0
    6.3388   -0.1339    0.1224 H   0  0
    6.1174   -1.1895    1.5156 H   0  0
    5.8874   -1.8377   -0.1157 H   0  0
   -3.3803    1.9065   -1.0285 H   0  0
   -2.6883   -1.4267    1.6201 H   0  0
   -5.3692    0.7588   -1.9379 H   0  0
   -4.6712   -2.5643    0.6955 H   0  0
   -6.0189   -1.4770   -1.0810 H   0  0
  1  9  2  0
  2 10  2  0
  3  5  1  0
  3 10  1  0
  3 25  1  0
  4  7  1  0
  4  9  1  0
  4 26  1  0
  5  6  1  0
  5  9  1  0
  5 20  1  0
  6  8  1  0
  6 12  1  0
  6 21  1  0
  7 10  1  0
  7 11  1  0
  7 22  1  0
  8 13  1  0
  8 23  1  0
  8 24  1  0
 11 14  1  0
 11 27  1  0
 11 28  1  0
 12 29  1  0
 12 30  1  0
 12 31  1  0
 13 32  1  0
 13 33  1  0
 13 34  1  0
 14 15  2  0
 14 16  1  0
 15 17  1  0
 15 35  1  0
 16 18  2  0
 16 36  1  0
 17 19  2  0
 17 37  1  0
 18 19  1  0
 18 38  1  0
 19 39  1  0
M  END
> <Name>
101129992

> <OBJECTID>
9223372728347852814

> <PUBCHEM_COMPOUND_CID>
101129992

> <PUBCHEM_CONFORMER_RMSD>
0.6

> <PUBCHEM_CONFORMER_DIVERSEORDER>
1
58
56
21
32
57
55
23
59
38
49
46
18
26
31
62
37
29
39
47
25
15
17
22
19
36
41
61
8
12
10
7
11
34
53
13
16
43
44
45
3
33
50
6
20
24
52
4
28
48
60
14
54
35
5
9
30
2
40
51
27
42

> <PUBCHEM_MMFF94_PARTIAL_CHARGES>
22
1 -0.57
10 0.57
11 0.14
14 -0.14
15 -0.15
16 -0.15
17 -0.15
18 -0.15
19 -0.15
2 -0.57
25 0.37
26 0.37
3 -0.73
35 0.15
36 0.15
37 0.15
38 0.15
39 0.15
4 -0.73
5 0.36
7 0.36
9 0.57

> <PUBCHEM_EFFECTIVE_ROTOR_COUNT>
4.8

> <PUBCHEM_PHARMACOPHORE_FEATURES>
8
1 1 acceptor
1 12 hydrophobe
1 13 hydrophobe
1 2 acceptor
1 3 donor
1 4 donor
6 14 15 16 17 18 19 rings
6 3 4 5 7 9 10 rings

> <PUBCHEM_HEAVY_ATOM_COUNT>
19

> <PUBCHEM_ATOM_DEF_STEREO_COUNT>
3

> <PUBCHEM_ATOM_UDEF_STEREO_COUNT>
0

> <PUBCHEM_BOND_DEF_STEREO_COUNT>
0

> <PUBCHEM_BOND_UDEF_STEREO_COUNT>
0

> <PUBCHEM_ISOTOPIC_ATOM_COUNT>
0

> <PUBCHEM_COMPONENT_COUNT>
1

> <PUBCHEM_CACTVS_TAUTO_COUNT>
8

> <PUBCHEM_CONFORMER_ID>
06071F0800000001

> <PUBCHEM_MMFF94_ENERGY>
57.1776

> <PUBCHEM_FEATURE_SELFOVERLAP>
40.606

> <PUBCHEM_SHAPE_FINGERPRINT>
10447042 23 18409443683488796718
10803635 8 18186795873104254623
11796584 16 17385441012107512018
11806522 49 18272370879762122944
12236239 1 18040997328652754938
12251169 10 10663816378134610513
12553582 1 18342188747466300633
12596602 18 13758356674222376295
12670546 177 17967816058994518493
13583140 156 13757788157875034657
13760787 5 18041574576082838720
13862211 1 18412542098597642274
14252887 29 17418381272494995676
14576447 43 18343299275516678055
15788980 27 17240485796910267970
17349148 13 18260274010326711722
1813 80 17274834557374021157
18222031 100 18060706091396590148
193927 3 17845947298273330269
19433438 38 18114179722795721407
200 152 18273213101827485307
20374829 77 18410290320369186533
20645477 70 18130504240747760181
20671657 53 18343024402121070017
21267235 1 18341338841841764347
221490 88 18194125337710478963
23402539 116 18343300332094171050
23557571 272 17986951851995761872
23559900 14 18336536235793240585
2838139 119 16226624008009824476
2871803 45 18410576193017868453
293599 30 8718821003435114762
3004659 81 18040433274766150994
314173 85 17632864109416122249
474229 33 18412824677507535502
4921388 177 16443356398903741515
5104073 3 18272376416349488761
59755656 215 18339364063962993862
9709674 26 18119807165304395955

> <PUBCHEM_SHAPE_MULTIPOLES>
369.31
11.65
1.92
1.1
0.47
0.46
-0.25
-4.19
-2.52
0.03
0.42
0.15
0.16
-0.21

> <PUBCHEM_SHAPE_SELFOVERLAP>
767.718

> <PUBCHEM_SHAPE_VOLUME>
208.3

> <PUBCHEM_COORDINATE_TYPE>
2
5
10

$$$$
101256943
  SciTegic09112316443D

 48 47  0  0  1  0            999 V2000
   -3.8193   -3.6121    0.4059 O   0  0
    3.7191   -1.4841   -0.4028 O   0  0
    5.1906    0.2106   -0.9499 O   0  0
   -1.8727    2.9834   -0.5431 C   0  0
   -2.5674    1.6229   -0.4636 C   0  0
   -0.4527    2.9742    0.0332 C   0  0
   -3.9790    1.6765   -1.0615 C   0  0
    0.3079    4.3014   -0.0404 C   0  0
   -4.7129    0.3333   -0.9734 C   0  0
    1.6855    4.2512    0.6011 C   0  0
   -4.8182   -0.1660    0.4387 C   0  0
   -4.3082   -1.3358    0.8531 C   0  0
   -3.5725   -2.2841   -0.0453 C   0  0  1  0  0  0
   -2.1363   -1.9826    0.0147 C   0  0
   -0.9722   -1.6932    0.0698 C   0  0
    2.8974   -0.5564    0.3001 C   0  0  2  0  0  0
    0.3477   -1.3271    0.1435 C   0  0
    3.3295   -0.5087    1.7351 C   0  0
    1.4978   -0.9891    0.2128 C   0  0
    4.8403   -0.9614   -0.9825 C   0  0
    5.6020   -2.0458   -1.6822 C   0  0
    3.7936    0.5928    2.3368 C   0  0
   -1.8288    3.3079   -1.5900 H   0  0
   -2.4701    3.7296   -0.0050 H   0  0
   -1.9726    0.8859   -1.0139 H   0  0
   -2.5992    1.3095    0.5854 H   0  0
    0.1340    2.2076   -0.4891 H   0  0
   -0.5056    2.6581    1.0829 H   0  0
   -3.9241    1.9836   -2.1130 H   0  0
   -4.5646    2.4440   -0.5392 H   0  0
    0.4131    4.5984   -1.0905 H   0  0
   -0.2829    5.0823    0.4528 H   0  0
   -5.7302    0.4659   -1.3620 H   0  0
   -4.2204   -0.3607   -1.6570 H   0  0
    1.6126    3.9963    1.6631 H   0  0
    2.3163    3.5023    0.1116 H   0  0
    2.1809    5.2233    0.5165 H   0  0
   -5.3405    0.4615    1.1561 H   0  0
   -4.4263   -1.6082    1.8995 H   0  0
   -3.9222   -2.2592   -1.0796 H   0  0
   -4.7743   -3.7798    0.3266 H   0  0
    2.9570    0.4388   -0.1607 H   0  0
    3.2792   -1.4291    2.3128 H   0  0
    5.9099   -2.8068   -0.9607 H   0  0
    6.4978   -1.6203   -2.1435 H   0  0
    4.9822   -2.4869   -2.4668 H   0  0
    4.1003    0.5628    3.3766 H   0  0
    3.8752    1.5364    1.8087 H   0  0
  1 13  1  0
  1 41  1  0
  2 16  1  0
  2 20  1  0
  3 20  2  0
  4  5  1  0
  4  6  1  0
  4 23  1  0
  4 24  1  0
  5  7  1  0
  5 25  1  0
  5 26  1  0
  6  8  1  0
  6 27  1  0
  6 28  1  0
  7  9  1  0
  7 29  1  0
  7 30  1  0
  8 10  1  0
  8 31  1  0
  8 32  1  0
  9 11  1  0
  9 33  1  0
  9 34  1  0
 10 35  1  0
 10 36  1  0
 10 37  1  0
 11 12  2  0
 11 38  1  0
 12 13  1  0
 12 39  1  0
 13 14  1  0
 13 40  1  0
 14 15  3  0
 15 17  1  0
 16 18  1  0
 16 19  1  0
 16 42  1  0
 17 19  3  0
 18 22  2  0
 18 43  1  0
 20 21  1  0
 21 44  1  0
 21 45  1  0
 21 46  1  0
 22 47  1  0
 22 48  1  0
M  END
> <Name>
101256943

> <OBJECTID>
9223372732642820110

> <PUBCHEM_COMPOUND_CID>
101256943

> <PUBCHEM_CONFORMER_RMSD>
1

> <PUBCHEM_CONFORMER_DIVERSEORDER>
3
36
44
34
76
61
67
37
72
28
64
38
70
47
68
9
5
43
39
33
66
54
63
62
32
26
18
57
59
14
71
17
7
45
55
69
29
42
53
51
41
73
75
10
15
60
27
20
21
58
30
65
46
74
35
1
16
25
12
8
31
13
40
24
49
4
22
6
23
19
11
56
50
52
2
48

> <PUBCHEM_MMFF94_PARTIAL_CHARGES>
20
1 -0.68
11 -0.29
12 -0.29
13 0.62
14 -0.2
16 0.62
18 -0.29
19 -0.2
2 -0.43
20 0.66
21 0.06
22 -0.3
3 -0.57
38 0.15
39 0.15
41 0.4
43 0.15
47 0.15
48 0.15
9 0.14

> <PUBCHEM_EFFECTIVE_ROTOR_COUNT>
10

> <PUBCHEM_PHARMACOPHORE_FEATURES>
5
1 1 acceptor
1 1 donor
1 10 hydrophobe
1 22 hydrophobe
1 3 acceptor

> <PUBCHEM_HEAVY_ATOM_COUNT>
22

> <PUBCHEM_ATOM_DEF_STEREO_COUNT>
2

> <PUBCHEM_ATOM_UDEF_STEREO_COUNT>
0

> <PUBCHEM_BOND_DEF_STEREO_COUNT>
1

> <PUBCHEM_BOND_UDEF_STEREO_COUNT>
0

> <PUBCHEM_ISOTOPIC_ATOM_COUNT>
0

> <PUBCHEM_COMPONENT_COUNT>
1

> <PUBCHEM_CACTVS_TAUTO_COUNT>
2

> <PUBCHEM_CONFORMER_ID>
06090EEF00000003

> <PUBCHEM_MMFF94_ENERGY>
8.8485

> <PUBCHEM_FEATURE_SELFOVERLAP>
25.372

> <PUBCHEM_SHAPE_FINGERPRINT>
10429389 16 17698179348055682478
10498660 4 18336262353980676904
10670039 82 18262240993710772358
11595378 159 17749101162937009826
12596602 18 16732709345687622371
12788726 201 18187649042186732090
12954195 1 18123482583420436950
14251757 5 18260839201794560715
14681488 357 18342174496654536112
17818456 19 17901084353126627322
2297311 6 18336839632024651783
23557571 272 18411427184948221823
23559900 14 18413106186236972308

> <PUBCHEM_SHAPE_MULTIPOLES>
435.14
12.05
5.01
1.41
5.93
5.84
0.41
-7.15
-2.76
-1.79
0.02
2.03
-0.12
2.54

> <PUBCHEM_SHAPE_SELFOVERLAP>
832.858

> <PUBCHEM_SHAPE_VOLUME>
261.8

> <PUBCHEM_COORDINATE_TYPE>
2
5
10

$$$$
101445018
  SciTegic09112316443D

 36 37  0  0  1  0            999 V2000
   -1.7560    2.3280    0.6813 O   0  0
   -0.9398   -2.9317    0.5246 O   0  0
   -2.2447   -1.1007    0.0398 N   0  0
   -0.3759    0.5237    1.0103 N   0  0
   -2.2968    0.2633   -0.4628 C   0  0  1  0  0  0
   -3.7358    0.7422   -0.5889 C   0  0
    0.1154   -0.7694    0.5626 C   0  0  2  0  0  0
   -1.4962    1.1423    0.4857 C   0  0
    0.9375   -0.6754   -0.7133 C   0  0
   -1.0634   -1.7131    0.4137 C   0  0
   -4.5150   -0.1319   -1.5726 C   0  0
   -4.4263    0.7525    0.7755 C   0  0
    2.3367   -0.1888   -0.4430 C   0  0
    2.6178    1.1772   -0.4705 C   0  0
    3.3517   -1.1043   -0.1652 C   0  0
    3.9141    1.6277   -0.2201 C   0  0
    4.6478   -0.6539    0.0852 C   0  0
    4.9290    0.7122    0.0577 C   0  0
   -1.8029    0.2792   -1.4409 H   0  0
   -3.7378    1.7687   -0.9782 H   0  0
    0.7200   -1.1591    1.3916 H   0  0
   -3.0375   -1.7159   -0.1100 H   0  0
    0.4664   -0.0208   -1.4567 H   0  0
    0.9986   -1.6590   -1.1985 H   0  0
    0.2184    1.0694    1.6269 H   0  0
   -5.4926    0.3182   -1.7797 H   0  0
   -3.9853   -0.2174   -2.5272 H   0  0
   -4.7036   -1.1397   -1.1906 H   0  0
   -5.4602    1.1005    0.6670 H   0  0
   -3.9445    1.4238    1.4912 H   0  0
   -4.4705   -0.2455    1.2244 H   0  0
    1.8363    1.9009   -0.6864 H   0  0
    3.1448   -2.1709   -0.1387 H   0  0
    4.1331    2.6912   -0.2415 H   0  0
    5.4381   -1.3666    0.3021 H   0  0
    5.9382    1.0628    0.2528 H   0  0
  1  8  2  0
  2 10  2  0
  3  5  1  0
  3 10  1  0
  3 22  1  0
  4  7  1  0
  4  8  1  0
  4 25  1  0
  5  6  1  0
  5  8  1  0
  5 19  1  0
  6 11  1  0
  6 12  1  0
  6 20  1  0
  7  9  1  0
  7 10  1  0
  7 21  1  0
  9 13  1  0
  9 23  1  0
  9 24  1  0
 11 26  1  0
 11 27  1  0
 11 28  1  0
 12 29  1  0
 12 30  1  0
 12 31  1  0
 13 14  2  0
 13 15  1  0
 14 16  1  0
 14 32  1  0
 15 17  2  0
 15 33  1  0
 16 18  2  0
 16 34  1  0
 17 18  1  0
 17 35  1  0
 18 36  1  0
M  END
> <Name>
101445018

> <OBJECTID>
9223372736937787406

> <PUBCHEM_COMPOUND_CID>
101445018

> <PUBCHEM_CONFORMER_RMSD>
0.6

> <PUBCHEM_CONFORMER_DIVERSEORDER>
1
4
22
30
5
6
10
31
21
28
12
2
29
15
25
9
20
19
26
8
27
24
17
3
14
23
18
11
13
7
16

> <PUBCHEM_MMFF94_PARTIAL_CHARGES>
22
1 -0.57
10 0.57
13 -0.14
14 -0.15
15 -0.15
16 -0.15
17 -0.15
18 -0.15
2 -0.57
22 0.37
25 0.37
3 -0.73
32 0.15
33 0.15
34 0.15
35 0.15
36 0.15
4 -0.73
5 0.36
7 0.36
8 0.57
9 0.14

> <PUBCHEM_EFFECTIVE_ROTOR_COUNT>
3.8

> <PUBCHEM_PHARMACOPHORE_FEATURES>
7
1 1 acceptor
1 2 acceptor
1 3 donor
1 4 donor
3 6 11 12 hydrophobe
6 13 14 15 16 17 18 rings
6 3 4 5 7 8 10 rings

> <PUBCHEM_HEAVY_ATOM_COUNT>
18

> <PUBCHEM_ATOM_DEF_STEREO_COUNT>
2

> <PUBCHEM_ATOM_UDEF_STEREO_COUNT>
0

> <PUBCHEM_BOND_DEF_STEREO_COUNT>
0

> <PUBCHEM_BOND_UDEF_STEREO_COUNT>
0

> <PUBCHEM_ISOTOPIC_ATOM_COUNT>
0

> <PUBCHEM_COMPONENT_COUNT>
1

> <PUBCHEM_CACTVS_TAUTO_COUNT>
8

> <PUBCHEM_CONFORMER_ID>
060BED9A00000001

> <PUBCHEM_MMFF94_ENERGY>
56.652

> <PUBCHEM_FEATURE_SELFOVERLAP>
35.529

> <PUBCHEM_SHAPE_FINGERPRINT>
10014705 185 18041276664155302260
10366900 7 17988925600227386136
11370993 70 18408881837152300142
12119455 92 17603298233086550367
12403260 363 18339636733786449936
12500047 106 18335136553011264186
12592029 89 17676767565626375835
13380535 76 18412830170438345878
13533116 47 18341327791429098866
13583140 156 16950280728261777137
13675066 3 17022623078499391894
14790565 3 18269846332920902985
14943859 89 17458343039527952939
15420108 30 16184966411631151296
15442244 35 18265899060575460418
17349148 13 18343017757816822710
17802600 8 18412540994743606848
1813 80 12967126129410717682
18186145 218 18335986389172707087
187816 3 18413102866585922783
192875 21 18341889680314491036
200 152 17561363984953027476
20300324 65 17917708002765643237
20645476 183 18040425612228198403
20645477 56 18187365458391498292
20645477 70 18342460309875341670
20871999 31 18270109244948317647
21033648 29 17968082123360188884
21033650 10 17344377525686076632
21524375 3 18187369778944235034
22224240 67 18261685813954479051
23402539 116 18342171150774461181
23402655 69 18201999876584849965
23557571 272 18197511807569738918
23559900 14 18413671314556704674
328317 168 18409445894816659973
351380 180 18343016684048826420
3545911 37 18408890654920268092
4028521 119 18408037403299762005
5104073 3 18334857268525637818
57005193 9 18335415777361502918
633830 44 18270124500545221103
69090 78 18407758135994218078
9709674 26 18272378550922165830

> <PUBCHEM_SHAPE_MULTIPOLES>
348.73
9.74
2
0.99
3.01
0.58
0.15
-2.55
1.59
-0.16
-0.42
-0.9
-0.05
-0.27

> <PUBCHEM_SHAPE_SELFOVERLAP>
729.802

> <PUBCHEM_SHAPE_VOLUME>
195.2

> <PUBCHEM_COORDINATE_TYPE>
2
5
10

$$$$
101491236
  SciTegic09112316443D

 56 58  0  0  1  0            999 V2000
    0.4458   -1.4820   -2.4178 O   0  0
    2.2422    1.9849   -0.7195 O   0  0
   -2.2716    0.7577    0.1378 O   0  0
   -1.3383    3.2983   -1.0218 O   0  0
    1.6473   -0.9496    0.7966 C   0  0  2  0  0  0
    1.7159   -0.3843   -0.6514 C   0  0  1  0  0  0
    2.8228   -1.9545    0.8952 C   0  0
   -0.5904   -1.0282   -0.2478 C   0  0  2  0  0  0
    0.2075   -1.4733    0.9985 C   0  0
    3.0821   -0.7601   -1.2097 C   0  0
    3.8717   -1.2658   -0.0003 C   0  0
    0.5251   -1.0740   -1.2705 C   0  0
    1.3904    1.1090   -0.6016 C   0  0
   -0.9529    0.4631   -0.1690 C   0  0
    2.5239   -3.3670    0.3597 C   0  0
    3.3265   -2.0768    2.3376 C   0  0
   -1.7149   -1.9925   -0.6080 C   0  0
   -0.0544    1.4602   -0.3438 C   0  0
   -2.7737   -2.0126    0.4542 C   0  0
   -0.4858    2.8617   -0.2462 C   0  0
    0.1761    3.7259    0.8245 C   0  0
   -4.0881   -1.7562    0.3129 C   0  0
    0.9009    4.8956    0.1668 C   0  0
   -0.8506    4.2247    1.8387 C   0  0
   -5.1005   -1.7935    1.4224 C   0  0
   -4.6570   -1.4105   -1.0374 C   0  0
    1.8207   -0.1354    1.5161 H   0  0
    0.1838   -2.5598    1.1180 H   0  0
   -0.2187   -1.0551    1.9190 H   0  0
    3.6046    0.0757   -1.6856 H   0  0
    3.0068   -1.5559   -1.9595 H   0  0
    4.6858   -1.9341   -0.3000 H   0  0
    4.3221   -0.4102    0.5195 H   0  0
    1.8614   -3.9217    1.0323 H   0  0
    3.4479   -3.9514    0.2757 H   0  0
    2.0586   -3.3518   -0.6301 H   0  0
    2.5548   -2.5039    2.9875 H   0  0
    3.6047   -1.1008    2.7508 H   0  0
    4.2110   -2.7212    2.3926 H   0  0
   -2.1101   -1.7519   -1.5990 H   0  0
   -1.3162   -3.0117   -0.7037 H   0  0
   -2.4302   -2.2850    1.4512 H   0  0
   -2.4022    1.7175    0.1891 H   0  0
    0.9135    3.1222    1.3670 H   0  0
    0.1984    5.5605   -0.3482 H   0  0
    1.6245    4.5487   -0.5773 H   0  0
    1.4408    5.4873    0.9133 H   0  0
   -1.6112    4.8518    1.3607 H   0  0
   -1.3688    3.3815    2.3081 H   0  0
   -0.3689    4.8114    2.6275 H   0  0
   -4.6434   -2.0804    2.3751 H   0  0
   -5.8871   -2.5205    1.1965 H   0  0
   -5.5591   -0.8085    1.5553 H   0  0
   -4.9943   -2.3173   -1.5492 H   0  0
   -5.5234   -0.7483   -0.9247 H   0  0
   -3.9610   -0.8707   -1.6836 H   0  0
  1 12  2  0
  2 13  2  0
  3 14  1  0
  3 43  1  0
  4 20  2  0
  5  6  1  0
  5  7  1  0
  5  9  1  0
  5 27  1  0
  6 10  1  0
  6 12  1  0
  6 13  1  0
  7 11  1  0
  7 15  1  0
  7 16  1  0
  8  9  1  0
  8 12  1  0
  8 14  1  0
  8 17  1  0
  9 28  1  0
  9 29  1  0
 10 11  1  0
 10 30  1  0
 10 31  1  0
 11 32  1  0
 11 33  1  0
 13 18  1  0
 14 18  2  0
 15 34  1  0
 15 35  1  0
 15 36  1  0
 16 37  1  0
 16 38  1  0
 16 39  1  0
 17 19  1  0
 17 40  1  0
 17 41  1  0
 18 20  1  0
 19 22  2  0
 19 42  1  0
 20 21  1  0
 21 23  1  0
 21 24  1  0
 21 44  1  0
 22 25  1  0
 22 26  1  0
 23 45  1  0
 23 46  1  0
 23 47  1  0
 24 48  1  0
 24 49  1  0
 24 50  1  0
 25 51  1  0
 25 52  1  0
 25 53  1  0
 26 54  1  0
 26 55  1  0
 26 56  1  0
M  END
> <Name>
101491236

> <OBJECTID>
9223372741232754702

> <PUBCHEM_COMPOUND_CID>
101491236

> <PUBCHEM_CONFORMER_RMSD>
0.8

> <PUBCHEM_CONFORMER_DIVERSEORDER>
1
10
22
31
34
15
32
30
9
27
19
25
3
24
6
17
12
33
21
18
16
28
23
26
5
13
20
8
14
7
29
4
11
2

> <PUBCHEM_MMFF94_PARTIAL_CHARGES>
19
1 -0.57
12 0.45
13 0.49
14 -0.06
17 0.14
18 0.03
19 -0.29
2 -0.57
20 0.49
21 0.06
22 -0.28
25 0.14
26 0.14
3 -0.53
4 -0.57
42 0.15
43 0.45
6 0.12
8 0.2

> <PUBCHEM_EFFECTIVE_ROTOR_COUNT>
4.8

> <PUBCHEM_PHARMACOPHORE_FEATURES>
9
1 1 acceptor
1 2 acceptor
1 3 donor
1 4 acceptor
3 21 23 24 hydrophobe
3 22 25 26 hydrophobe
3 7 15 16 hydrophobe
5 5 6 7 10 11 rings
8 5 6 8 9 12 13 14 18 rings

> <PUBCHEM_HEAVY_ATOM_COUNT>
26

> <PUBCHEM_ATOM_DEF_STEREO_COUNT>
2

> <PUBCHEM_ATOM_UDEF_STEREO_COUNT>
1

> <PUBCHEM_BOND_DEF_STEREO_COUNT>
0

> <PUBCHEM_BOND_UDEF_STEREO_COUNT>
0

> <PUBCHEM_ISOTOPIC_ATOM_COUNT>
0

> <PUBCHEM_COMPONENT_COUNT>
1

> <PUBCHEM_CACTVS_TAUTO_COUNT>
7

> <PUBCHEM_CONFORMER_ID>
060CA22400000001

> <PUBCHEM_MMFF94_ENERGY>
87.2426

> <PUBCHEM_FEATURE_SELFOVERLAP>
45.722

> <PUBCHEM_SHAPE_FINGERPRINT>
10064457 181 17332524575610937514
10863032 1 17833830470003945190
1100329 8 18265894662249920129
11578080 2 17459725155761560909
12160290 23 18051687746432502637
12293681 160 17974318665567133420
12549972 3 17822851004977168763
12553582 1 18409728478017025183
12788726 201 18262237716355826450
13009979 54 18115588119844990402
13134695 92 18339069493160804311
13140716 1 18338801117702451425
13583140 156 18045782553502239319
13878862 14 18265883835322396469
14178342 30 17113826189318511713
14787075 74 18187936143960782278
14790565 3 17686910818223178357
14866123 147 17255112346892988443
15230672 131 17253994664076630884
15420108 30 17699843226574737644
15664445 248 18198926831842865638
16945 1 18267017254931282934
17980427 23 17846498171200714915
17980427 26 17835794570852800069
18681886 176 17486789733374556983
20905425 154 18410580608112796060
21041028 32 18410291414963374270
21344244 78 18342733061741611883
21524375 3 17117203339635926047
21731228 192 17331392069949370024
23419403 2 17246624443511448926
23557571 272 18055067666498180414
23558518 356 17546432393694238591
23559900 14 17677891426051733735
3091708 16 9426564543210929561
345986 75 18042111086033347083
34934 24 18197218272356444830
352729 6 18122057598732743399
376196 1 17050497047094799557
394222 165 17839187659673394347
474 4 17690279739372482793
58807428 26 16825297815518713562
5895379 119 17343540814959839681
6442390 28 17335078758255066769
70251023 43 18267047019018143158
79837 15 17474102103623901611
81228 2 18120078490582419530
84936 182 17695356167246427329

> <PUBCHEM_SHAPE_MULTIPOLES>
511.59
6.42
5.56
1.62
7.16
9.05
-0.22
-7.26
-1.43
-1.11
-1.88
-0.4
-0.4
-0.64

> <PUBCHEM_SHAPE_SELFOVERLAP>
1094.769

> <PUBCHEM_SHAPE_VOLUME>
287.7

> <PUBCHEM_COORDINATE_TYPE>
2
5
10

$$$$
101491239
  SciTegic09112316443D

 63 65  0  0  1  0            999 V2000
    0.5514   -0.5566   -2.5960 O   0  0
   -0.7160    2.8776   -0.3969 O   0  0
   -2.9809   -1.3532   -0.2683 O   0  0
   -4.1376    1.4056   -1.1013 O   0  0
    0.9170    0.2014    0.7705 C   0  0  2  0  0  0
    0.5978    0.8508   -0.6064 C   0  0  1  0  0  0
    2.4614    0.3072    0.9219 C   0  0
    2.7074    1.6881    0.2447 C   0  0  2  0  0  0
   -0.5695   -1.2683   -0.5439 C   0  0  2  0  0  0
    0.2589   -1.1960    0.7586 C   0  0
    1.8366    1.6353   -1.0237 C   0  0
    0.2766   -0.3764   -1.4212 C   0  0
   -0.6974    1.6515   -0.4683 C   0  0
    2.8543    0.3248    2.4065 C   0  0
    3.2467   -0.8267    0.2280 C   0  0
   -1.8949   -0.5072   -0.3996 C   0  0
   -0.6800   -2.6838   -1.0968 C   0  0
   -1.9788    0.8476   -0.3737 C   0  0
    4.1265    2.0573   -0.0455 C   0  0
   -0.9868   -3.6682   -0.0080 C   0  0
    4.8385    2.8365    1.0202 C   0  0
   -3.2637    1.5542   -0.2441 C   0  0
    4.7286    1.7120   -1.1932 C   0  0
   -3.4424    2.4705    0.9646 C   0  0
   -0.2254   -4.6965    0.4119 C   0  0
   -4.3691    3.6262    0.6019 C   0  0
   -3.9832    1.6973    2.1649 C   0  0
    1.1155   -4.9605   -0.2198 C   0  0
   -0.5919   -5.6506    1.5130 C   0  0
    0.4489    0.7922    1.5723 H   0  0
    2.2749    2.4761    0.8807 H   0  0
    1.0111   -1.9848    0.8049 H   0  0
   -0.3734   -1.3197    1.6471 H   0  0
    1.6004    2.6503   -1.3637 H   0  0
    2.3022    1.1291   -1.8712 H   0  0
    2.4805   -0.5715    2.9146 H   0  0
    2.4368    1.1954    2.9240 H   0  0
    3.9403    0.3418    2.5387 H   0  0
    3.0813   -1.7891    0.7233 H   0  0
    4.3275   -0.6572    0.2807 H   0  0
    2.9769   -0.9454   -0.8250 H   0  0
   -1.4609   -2.7472   -1.8655 H   0  0
    0.2476   -2.9439   -1.6162 H   0  0
   -1.9480   -3.5413    0.4863 H   0  0
    4.3024    3.7673    1.2334 H   0  0
    4.9200    2.2637    1.9465 H   0  0
    5.8548    3.1092    0.7156 H   0  0
   -3.7836   -0.8163   -0.1617 H   0  0
    5.7611    2.0006   -1.3712 H   0  0
    4.2785    1.1224   -1.9792 H   0  0
   -2.4780    2.9010    1.2493 H   0  0
   -5.3780    3.2740    0.3595 H   0  0
   -3.9895    4.1717   -0.2691 H   0  0
   -4.4510    4.3341    1.4335 H   0  0
   -4.9503    1.2366    1.9353 H   0  0
   -3.2968    0.8926    2.4497 H   0  0
   -4.1124    2.3552    3.0303 H   0  0
    1.1009   -4.8399   -1.3066 H   0  0
    1.4292   -5.9955   -0.0408 H   0  0
    1.8786   -4.3051    0.2113 H   0  0
   -1.5595   -5.3982    1.9592 H   0  0
    0.1601   -5.6216    2.3082 H   0  0
   -0.6580   -6.6731    1.1278 H   0  0
  1 12  2  0
  2 13  2  0
  3 16  1  0
  3 48  1  0
  4 22  2  0
  5  6  1  0
  5  7  1  0
  5 10  1  0
  5 30  1  0
  6 11  1  0
  6 12  1  0
  6 13  1  0
  7  8  1  0
  7 14  1  0
  7 15  1  0
  8 11  1  0
  8 19  1  0
  8 31  1  0
  9 10  1  0
  9 12  1  0
  9 16  1  0
  9 17  1  0
 10 32  1  0
 10 33  1  0
 11 34  1  0
 11 35  1  0
 13 18  1  0
 14 36  1  0
 14 37  1  0
 14 38  1  0
 15 39  1  0
 15 40  1  0
 15 41  1  0
 16 18  2  0
 17 20  1  0
 17 42  1  0
 17 43  1  0
 18 22  1  0
 19 21  1  0
 19 23  2  0
 20 25  2  0
 20 44  1  0
 21 45  1  0
 21 46  1  0
 21 47  1  0
 22 24  1  0
 23 49  1  0
 23 50  1  0
 24 26  1  0
 24 27  1  0
 24 51  1  0
 25 28  1  0
 25 29  1  0
 26 52  1  0
 26 53  1  0
 26 54  1  0
 27 55  1  0
 27 56  1  0
 27 57  1  0
 28 58  1  0
 28 59  1  0
 28 60  1  0
 29 61  1  0
 29 62  1  0
 29 63  1  0
M  END
> <Name>
101491239

> <OBJECTID>
9223372745527721998

> <PUBCHEM_COMPOUND_CID>
101491239

> <PUBCHEM_CONFORMER_RMSD>
0.8

> <PUBCHEM_CONFORMER_DIVERSEORDER>
2
72
9
78
60
79
46
80
73
70
47
33
62
30
29
77
81
14
65
74
13
31
66
48
52
59
34
39
63
45
57
21
12
69
68
76
53
64
17
58
32
71
22
56
67
43
61
49
40
37
1
27
11
15
20
42
50
35
25
36
54
4
28
41
16
75
44
24
38
18
10
8
6
51
26
23
5
55
3
7
19

> <PUBCHEM_MMFF94_PARTIAL_CHARGES>
25
1 -0.57
12 0.45
13 0.49
16 -0.06
17 0.14
18 0.03
19 -0.28
2 -0.57
20 -0.29
21 0.14
22 0.49
23 -0.3
24 0.06
25 -0.28
28 0.14
29 0.14
3 -0.53
4 -0.57
44 0.15
48 0.45
49 0.15
50 0.15
6 0.12
8 0.14
9 0.2

> <PUBCHEM_EFFECTIVE_ROTOR_COUNT>
5.8

> <PUBCHEM_PHARMACOPHORE_FEATURES>
9
1 1 acceptor
1 2 acceptor
1 3 donor
1 4 acceptor
3 24 26 27 hydrophobe
3 25 28 29 hydrophobe
3 7 14 15 hydrophobe
5 5 6 7 8 11 rings
8 5 6 9 10 12 13 16 18 rings

> <PUBCHEM_HEAVY_ATOM_COUNT>
29

> <PUBCHEM_ATOM_DEF_STEREO_COUNT>
2

> <PUBCHEM_ATOM_UDEF_STEREO_COUNT>
2

> <PUBCHEM_BOND_DEF_STEREO_COUNT>
0

> <PUBCHEM_BOND_UDEF_STEREO_COUNT>
0

> <PUBCHEM_ISOTOPIC_ATOM_COUNT>
0

> <PUBCHEM_COMPONENT_COUNT>
1

> <PUBCHEM_CACTVS_TAUTO_COUNT>
7

> <PUBCHEM_CONFORMER_ID>
060CA22700000002

> <PUBCHEM_MMFF94_ENERGY>
101.7437

> <PUBCHEM_FEATURE_SELFOVERLAP>
45.721

> <PUBCHEM_SHAPE_FINGERPRINT>
10074138 170 18196639903354484064
10411042 1 17256243173453801586
10794284 68 16963282624900735857
107951 10 18341909488661229094
10863032 1 18412544327485156908
10948715 1 18272651225157439437
12160290 23 18054203673707597479
12553582 1 17544181036378579986
12788726 201 18052237768529613911
13134695 92 17472704628956534855
13140716 1 18338803312383149761
133893 2 17981588382914789119
13583140 156 17385446548579286445
13955234 65 18050300171738807817
13965767 371 18188774920598437997
14713325 29 18053397766497915028
14790565 3 18410299090376426580
14856354 85 16588601897680884504
14955137 171 17905893578716558634
15042514 8 17904488750342682967
15475509 84 17113842124332995747
16945 1 18125710433873746917
17980427 26 18196927777848114877
18785283 64 18121502353808713411
20600515 1 17406861921046889835
20739085 24 18189628145942868204
20775438 99 15822930870731446367
21120745 212 17616553073229373333
21796203 349 16458850995782657226
22121540 332 13965602564411361096
23366157 5 18049158861330849855
23419403 2 17339616648695333823
23557571 272 17910947264770026368
23559900 14 18122332489334853798
283562 15 18341606084056219119
3091708 16 8905584048228433191
376196 1 17989488498172143284
4058900 60 18125181366997107824
458136 41 18268437828038509073
474 4 18198622142779085057
5265222 85 18264786380720588142
58807428 26 18339638941093633219
633830 44 18130222649242865605
6673363 416 17112984522628595228
79837 15 18338524152188284914
9981440 41 18409728452705599193

> <PUBCHEM_SHAPE_MULTIPOLES>
573.33
7.34
6.41
1.69
2.97
11.36
-0.28
-10.34
-1.74
-3.59
-1.95
0.2
-0.05
-0.52

> <PUBCHEM_SHAPE_SELFOVERLAP>
1221.675

> <PUBCHEM_SHAPE_VOLUME>
324.1

> <PUBCHEM_COORDINATE_TYPE>
2
5
10

$$$$
101491242
  SciTegic09112316443D

 65 67  0  0  1  0            999 V2000
    0.1057    0.4338    2.4350 O   0  0
    0.4216   -2.9088   -0.2081 O   0  0
   -3.1625    0.2811   -0.3581 O   0  0
   -3.0009   -2.4498   -1.7305 O   0  0
    1.1342    0.2899   -0.8746 C   0  0  2  0  0  0
    0.8948   -0.6040    0.3752 C   0  0  1  0  0  0
    2.6206    0.7381   -0.7771 C   0  0
    3.2538   -0.5484   -0.1747 C   0  0  2  0  0  0
    2.2670   -0.9713    0.9268 C   0  0
    0.0240    1.3639   -0.8639 C   0  0
   -0.9301    0.9834    0.2907 C   0  0  2  0  0  0
    0.0611    0.3251    1.2208 C   0  0
   -0.0049   -1.7702   -0.0352 C   0  0
    4.6805   -0.4319    0.3464 C   0  0
    2.8579    1.9759    0.1107 C   0  0
    3.1814    1.0382   -2.1747 C   0  0
   -1.8717   -0.1559   -0.1234 C   0  0
   -1.6013    2.1944    0.9268 C   0  0
   -1.4658   -1.4431   -0.2705 C   0  0
    4.9820   -1.5444    1.3503 C   0  0
    5.6820   -0.4683   -0.8075 C   0  0
   -2.0993    3.1484   -0.1175 C   0  0
   -2.3902   -2.5200   -0.6616 C   0  0
   -2.5615   -3.6857    0.3104 C   0  0
   -2.1695    4.4909   -0.0410 C   0  0
   -2.8370   -4.9882   -0.4372 C   0  0
   -3.6866   -3.3759    1.2925 C   0  0
   -1.7045    5.2097    1.1975 C   0  0
   -2.6809    5.3934   -1.1277 C   0  0
    1.0155   -0.3150   -1.7864 H   0  0
    3.2235   -1.3437   -0.9359 H   0  0
    2.3483   -2.0405    1.1488 H   0  0
    2.4626   -0.4268    1.8579 H   0  0
    0.4349    2.3669   -0.7325 H   0  0
   -0.4945    1.3697   -1.8313 H   0  0
    4.8350    0.5004    0.8970 H   0  0
    2.3832    2.8684   -0.3090 H   0  0
    2.4791    1.8432    1.1279 H   0  0
    3.9207    2.2293    0.1797 H   0  0
    4.1440    1.5532   -2.1403 H   0  0
    3.2932    0.1288   -2.7746 H   0  0
    2.5007    1.7040   -2.7190 H   0  0
   -2.4351    1.8856    1.5694 H   0  0
   -0.8750    2.6931    1.5785 H   0  0
    4.7715   -2.5335    0.9287 H   0  0
    4.4219   -1.4320    2.2833 H   0  0
    6.0419   -1.5297    1.6303 H   0  0
    5.4793   -1.2932   -1.4986 H   0  0
    6.7012   -0.6050   -0.4276 H   0  0
    5.6975    0.4655   -1.3692 H   0  0
   -2.4858    2.7025   -1.0329 H   0  0
   -3.7063   -0.4795   -0.6222 H   0  0
   -1.6376   -3.8230    0.8816 H   0  0
   -3.7791   -4.9400   -0.9944 H   0  0
   -2.0377   -5.1978   -1.1562 H   0  0
   -2.8977   -5.8314    0.2587 H   0  0
   -4.6372   -3.2193    0.7705 H   0  0
   -3.4706   -2.4640    1.8597 H   0  0
   -3.8194   -4.1944    2.0074 H   0  0
   -0.7189    5.6546    1.0262 H   0  0
   -1.6528    4.5779    2.0874 H   0  0
   -2.4025    6.0178    1.4451 H   0  0
   -3.5543    5.9544   -0.7802 H   0  0
   -1.9046    6.1037   -1.4298 H   0  0
   -2.9791    4.8266   -2.0159 H   0  0
  1 12  2  0
  2 13  2  0
  3 17  1  0
  3 52  1  0
  4 23  2  0
  5  6  1  0
  5  7  1  0
  5 10  1  0
  5 30  1  0
  6  9  1  0
  6 12  1  0
  6 13  1  0
  7  8  1  0
  7 15  1  0
  7 16  1  0
  8  9  1  0
  8 14  1  0
  8 31  1  0
  9 32  1  0
  9 33  1  0
 10 11  1  0
 10 34  1  0
 10 35  1  0
 11 12  1  0
 11 17  1  0
 11 18  1  0
 13 19  1  0
 14 20  1  0
 14 21  1  0
 14 36  1  0
 15 37  1  0
 15 38  1  0
 15 39  1  0
 16 40  1  0
 16 41  1  0
 16 42  1  0
 17 19  2  0
 18 22  1  0
 18 43  1  0
 18 44  1  0
 19 23  1  0
 20 45  1  0
 20 46  1  0
 20 47  1  0
 21 48  1  0
 21 49  1  0
 21 50  1  0
 22 25  2  0
 22 51  1  0
 23 24  1  0
 24 26  1  0
 24 27  1  0
 24 53  1  0
 25 28  1  0
 25 29  1  0
 26 54  1  0
 26 55  1  0
 26 56  1  0
 27 57  1  0
 27 58  1  0
 27 59  1  0
 28 60  1  0
 28 61  1  0
 28 62  1  0
 29 63  1  0
 29 64  1  0
 29 65  1  0
M  END
> <Name>
101491242

> <OBJECTID>
9223372749822689294

> <PUBCHEM_COMPOUND_CID>
101491242

> <PUBCHEM_CONFORMER_RMSD>
0.8

> <PUBCHEM_CONFORMER_DIVERSEORDER>
1
41
75
86
68
58
54
83
79
70
55
69
81
73
48
44
61
46
6
56
80
57
27
15
37
87
52
82
49
10
85
7
34
71
59
66
38
60
21
42
77
40
63
51
18
78
67
65
64
17
33
72
25
62
47
50
16
84
29
3
45
89
32
22
23
76
13
88
53
43
9
26
20
2
74
35
24
19
5
28
12
39
30
4
14
11
8
36
31

> <PUBCHEM_MMFF94_PARTIAL_CHARGES>
19
1 -0.57
11 0.2
12 0.45
13 0.49
17 -0.06
18 0.14
19 0.03
2 -0.57
22 -0.29
23 0.49
24 0.06
25 -0.28
28 0.14
29 0.14
3 -0.53
4 -0.57
51 0.15
52 0.45
6 0.12

> <PUBCHEM_EFFECTIVE_ROTOR_COUNT>
5.8

> <PUBCHEM_PHARMACOPHORE_FEATURES>
10
1 1 acceptor
1 2 acceptor
1 3 donor
1 4 acceptor
3 14 20 21 hydrophobe
3 24 26 27 hydrophobe
3 25 28 29 hydrophobe
3 7 15 16 hydrophobe
5 5 6 7 8 9 rings
8 5 6 10 11 12 13 17 19 rings

> <PUBCHEM_HEAVY_ATOM_COUNT>
29

> <PUBCHEM_ATOM_DEF_STEREO_COUNT>
2

> <PUBCHEM_ATOM_UDEF_STEREO_COUNT>
2

> <PUBCHEM_BOND_DEF_STEREO_COUNT>
0

> <PUBCHEM_BOND_UDEF_STEREO_COUNT>
0

> <PUBCHEM_ISOTOPIC_ATOM_COUNT>
0

> <PUBCHEM_COMPONENT_COUNT>
1

> <PUBCHEM_CACTVS_TAUTO_COUNT>
7

> <PUBCHEM_CONFORMER_ID>
060CA22A00000001

> <PUBCHEM_MMFF94_ENERGY>
104.8388

> <PUBCHEM_FEATURE_SELFOVERLAP>
50.796

> <PUBCHEM_SHAPE_FINGERPRINT>
10258939 38 15975176650708702894
10411042 1 18194965368652196822
11763715 3 18119271672702338876
12160290 23 18130520642969277021
12293681 160 17323544233129973300
12553582 1 18053671548719304318
12788726 201 18336000738631978070
13009979 54 18261674869665976406
13134695 92 17980186805931487695
13140716 1 18338516442853753459
13540713 5 17968100803253575020
13583140 156 17632282455544654490
13757389 114 18192733158743206828
138480 1 16393243587449555301
13955234 65 17042050062047122833
14294032 229 18198064686205042449
14790565 3 17905893570142551956
15042514 8 18411146856869950299
15081414 286 16322034807909456369
15420108 30 17831846959247827672
15439362 3 17112975162902423860
15664445 248 17619927479137162124
16087824 20 18410296896607701433
16945 1 18341899558332758606
17980427 26 16113391610081681168
1813 80 17840888569707100503
20101258 96 18338807826230286976
20600515 1 17915767420735637393
20642791 105 18193826055757414441
20739085 24 17982190098979682675
20775438 99 17187798506327211447
21033648 29 18054499211003977760
21120745 212 18337687419766353652
21304303 282 18122882283982698501
23366157 5 17401488646550253251
23419403 2 17130684236639329144
23559900 14 18201437013158086642
3091708 16 9058413961139360953
350125 39 18266460906206010617
38695281 34 17833547899377985960
4017518 198 17551780435769909230
463206 1 17830176058347025018
5385378 56 17259346566034247713
59755656 520 17699869335997662216
6058803 2 18114186316071459972
7164475 11 18337678628242228462
79837 15 18266460893167472137
9981440 41 17977946783145254385

> <PUBCHEM_SHAPE_MULTIPOLES>
573.33
7.71
6.92
1.49
11.08
2.61
0.1
-0.89
-0.32
-13.13
-0.27
0.33
0.26
-0.77

> <PUBCHEM_SHAPE_SELFOVERLAP>
1216.205

> <PUBCHEM_SHAPE_VOLUME>
325.9

> <PUBCHEM_COORDINATE_TYPE>
2
5
10

$$$$
102261321
  SciTegic09112316443D

 34 35  0  0  1  0            999 V2000
    0.5255    2.7465    0.9368 O   0  0
    1.4384   -2.4675    0.8508 O   0  0
    4.1526    0.6479   -1.7509 O   0  0
   -0.0439   -0.7076    0.9058 N   0  0
    1.9653    0.9838    0.5926 N   0  0
    5.8396   -0.5348   -0.7295 N   0  0
   -0.4187    0.5875    0.3571 C   0  0  1  0  0  0
    2.1686   -0.3221   -0.0173 C   0  0  2  0  0  0
   -1.7569    1.0534    0.9076 C   0  0
    0.7061    1.5543    0.7011 C   0  0
    1.1942   -1.2794    0.6555 C   0  0
    3.6101   -0.7816    0.1308 C   0  0
   -2.9137    0.3903    0.2065 C   0  0
    4.5288   -0.1378   -0.8861 C   0  0
   -3.4714    0.9784   -0.9287 C   0  0
   -3.4272   -0.8119    0.6928 C   0  0
   -4.5427    0.3643   -1.5777 C   0  0
   -4.4984   -1.4260    0.0440 C   0  0
   -5.0562   -0.8379   -1.0913 C   0  0
   -0.4448    0.4951   -0.7364 H   0  0
    1.8763   -0.2504   -1.0723 H   0  0
   -1.8738    2.1388    0.7907 H   0  0
   -1.8235    0.8735    1.9892 H   0  0
   -0.7611   -1.3071    1.3008 H   0  0
    2.7693    1.5865    0.7410 H   0  0
    3.6885   -1.8649   -0.0251 H   0  0
    3.9901   -0.5685    1.1379 H   0  0
   -3.0789    1.9137   -1.3189 H   0  0
   -3.0109   -1.2780    1.5815 H   0  0
   -4.9766    0.8219   -2.4619 H   0  0
   -4.8998   -2.3610    0.4239 H   0  0
   -5.8905   -1.3159   -1.5962 H   0  0
    6.1271   -1.1865   -0.0064 H   0  0
    6.5679   -0.1828   -1.3419 H   0  0
  1 10  2  0
  2 11  2  0
  3 14  2  0
  4  7  1  0
  4 11  1  0
  4 24  1  0
  5  8  1  0
  5 10  1  0
  5 25  1  0
  6 14  1  0
  6 33  1  0
  6 34  1  0
  7  9  1  0
  7 10  1  0
  7 20  1  0
  8 11  1  0
  8 12  1  0
  8 21  1  0
  9 13  1  0
  9 22  1  0
  9 23  1  0
 12 14  1  0
 12 26  1  0
 12 27  1  0
 13 15  2  0
 13 16  1  0
 15 17  1  0
 15 28  1  0
 16 18  2  0
 16 29  1  0
 17 19  2  0
 17 30  1  0
 18 19  1  0
 18 31  1  0
 19 32  1  0
M  END
> <Name>
102261321

> <OBJECTID>
9223372754117656590

> <PUBCHEM_COMPOUND_CID>
102261321

> <PUBCHEM_CONFORMER_RMSD>
0.6

> <PUBCHEM_CONFORMER_DIVERSEORDER>
1
102
99
80
79
73
4
50
38
24
90
63
69
30
108
3
22
81
107
59
85
35
51
88
118
47
71
67
103
92
89
86
94
11
75
60
96
18
45
12
105
62
56
68
34
48
78
16
21
20
27
82
41
6
19
101
43
37
53
61
32
55
26
65
31
95
52
8
76
100
25
91
57
28
93
113
14
40
70
9
72
116
23
74
2
84
10
17
33
77
64
106
83
29
36
114
7
112
15
13
66
97
54
98
39
5
109
42
104
87
58
110
49
46
111
44
117
115

> <PUBCHEM_MMFF94_PARTIAL_CHARGES>
28
1 -0.57
10 0.57
11 0.57
12 0.06
13 -0.14
14 0.57
15 -0.15
16 -0.15
17 -0.15
18 -0.15
19 -0.15
2 -0.57
24 0.37
25 0.37
28 0.15
29 0.15
3 -0.57
30 0.15
31 0.15
32 0.15
33 0.37
34 0.37
4 -0.73
5 -0.73
6 -0.8
7 0.36
8 0.36
9 0.14

> <PUBCHEM_EFFECTIVE_ROTOR_COUNT>
4.8

> <PUBCHEM_PHARMACOPHORE_FEATURES>
8
1 1 acceptor
1 2 acceptor
1 3 acceptor
1 4 donor
1 5 donor
1 6 donor
6 13 15 16 17 18 19 rings
6 4 5 7 8 10 11 rings

> <PUBCHEM_HEAVY_ATOM_COUNT>
19

> <PUBCHEM_ATOM_DEF_STEREO_COUNT>
2

> <PUBCHEM_ATOM_UDEF_STEREO_COUNT>
0

> <PUBCHEM_BOND_DEF_STEREO_COUNT>
0

> <PUBCHEM_BOND_UDEF_STEREO_COUNT>
0

> <PUBCHEM_ISOTOPIC_ATOM_COUNT>
0

> <PUBCHEM_COMPONENT_COUNT>
1

> <PUBCHEM_CACTVS_TAUTO_COUNT>
24

> <PUBCHEM_CONFORMER_ID>
618624900000001

> <PUBCHEM_MMFF94_ENERGY>
58.6006

> <PUBCHEM_FEATURE_SELFOVERLAP>
40.606

> <PUBCHEM_SHAPE_FINGERPRINT>
10366900 7 18187639237293444051
11089746 13 15574712521666933668
11543360 7 17458346355332356689
11961588 58 17168705370128695576
12251169 10 10807928276075646177
12507557 5 10375868580745371895
12553582 1 18342454820832777779
12596602 18 10159690300830642590
12670546 177 18186522102760530191
12788726 201 17914614952282727009
12892183 10 12463567361694542238
13103583 49 12823300104366478727
13583140 156 16009328581595545696
13675066 3 7853569132096396873
13862211 1 18342454825201968018
14251758 9 8286213742460470928
14350574 20 18410858802214247851
14576447 43 18343577438852122135
15188451 53 14189278397220784781
15209294 21 12035450562084313484
1813 80 17060350625189060012
18222031 100 17846488231992264012
193927 3 17418102034964235061
19784866 170 9223240641073296256
19784866 240 16988554745774072301
200 152 18411700958815961635
20645477 70 18058717126586134757
20671657 53 18272366473452848441
20871999 31 18408603630645526241
212916 134 12107788561768400028
21475661 188 14491044916381601948
21637258 2 16343698799159872630
221357 26 18411411826577356453
221490 88 18267021850504143731
22182313 1 18047475813575725512
22393880 68 18337942463629940375
23379529 103 17773877691217884871
23402539 116 18130232566691096952
23402655 69 18187922833683058591
23503958 8 15410609328863480447
23559900 14 18336814403602870361
25147074 1 18121500154822050184
2838139 119 16153430562678400892
2871803 45 18411412921319230705
2916195 48 13623541181195104964
33382 64 15984833601480562158
3472631 163 15719661088217795655
351380 3 17775283872194961767
4259306 186 18131070398567037030
7970288 3 17704349987604604631

> <PUBCHEM_SHAPE_MULTIPOLES>
358.46
11.16
1.87
1.3
2.46
0.29
-0.41
-3.13
-6.18
0.08
0.67
-0.11
0.15
0.01

> <PUBCHEM_SHAPE_SELFOVERLAP>
754.743

> <PUBCHEM_SHAPE_VOLUME>
198.7

> <PUBCHEM_COORDINATE_TYPE>
2
5
10

$$$$
122225045
  SciTegic09112316443D

 33 35  0  0  1  0            999 V2000
    1.0917   -0.0457   -1.1214 O   0  0
    0.6303   -1.3410    0.8629 O   0  0
    4.3303    0.7833    1.3427 O   0  0
    3.6362    1.3164   -1.3030 O   0  0
   -4.4839    2.2337   -0.1361 O   0  0
   -1.6642   -0.0186    0.1785 N   0  0
    0.8040   -0.0322    0.2867 C   0  0  1  0  0  0
    1.9463    0.6731    1.0400 C   0  0
   -0.4911    0.7712    0.5056 C   0  0
    3.2957    0.0373    0.7129 C   0  0  1  0  0  0
    3.5117   -0.0135   -0.7971 C   0  0  1  0  0  0
    2.3226   -0.6863   -1.4708 C   0  0
   -1.6388   -1.3845    0.0823 C   0  0
   -0.3708   -2.1427    0.2203 C   0  0
   -2.9309    0.4529   -0.0128 C   0  0
   -2.9293   -1.7969   -0.1820 C   0  0
   -3.7438   -0.6368   -0.2417 C   0  0
   -3.3160    1.8303    0.0329 C   0  0
    1.7833    0.6291    2.1245 H   0  0
    1.9802    1.7377    0.7726 H   0  0
   -0.6136    1.0483    1.5594 H   0  0
   -0.4964    1.6683   -0.1222 H   0  0
    3.3327   -0.9819    1.1162 H   0  0
    4.4464   -0.5347   -1.0299 H   0  0
    2.4137   -0.6171   -2.5597 H   0  0
    2.2703   -1.7481   -1.2072 H   0  0
   -0.5220   -3.0341    0.8372 H   0  0
   -0.0054   -2.4696   -0.7585 H   0  0
   -3.2484   -2.8203   -0.3225 H   0  0
   -4.8083   -0.6082   -0.4309 H   0  0
    4.1547    0.7801    2.2992 H   0  0
    3.7829    1.2522   -2.2622 H   0  0
   -2.5292    2.5739    0.2387 H   0  0
  1  7  1  0
  1 12  1  0
  2  7  1  0
  2 14  1  0
  3 10  1  0
  3 31  1  0
  4 11  1  0
  4 32  1  0
  5 18  2  0
  6  9  1  0
  6 13  1  0
  6 15  1  0
  7  8  1  0
  7  9  1  0
  8 10  1  0
  8 19  1  0
  8 20  1  0
  9 21  1  0
  9 22  1  0
 10 11  1  0
 10 23  1  0
 11 12  1  0
 11 24  1  0
 12 25  1  0
 12 26  1  0
 13 14  1  0
 13 16  2  0
 14 27  1  0
 14 28  1  0
 15 17  2  0
 15 18  1  0
 16 17  1  0
 16 29  1  0
 17 30  1  0
 18 33  1  0
M  END
> <Name>
122225045

> <OBJECTID>
9223372758412623886

> <PUBCHEM_COMPOUND_CID>
122225045

> <PUBCHEM_CONFORMER_RMSD>
0.6

> <PUBCHEM_CONFORMER_DIVERSEORDER>
1
3
2

> <PUBCHEM_MMFF94_PARTIAL_CHARGES>
22
1 -0.56
10 0.28
11 0.28
12 0.28
13 -0.33
14 0.46
15 -0.24
16 -0.15
17 -0.15
18 0.59
2 -0.56
29 0.15
3 -0.68
30 0.15
31 0.4
32 0.4
33 0.06
4 -0.68
5 -0.57
6 0.05
7 0.56
9 0.26

> <PUBCHEM_EFFECTIVE_ROTOR_COUNT>
2.6

> <PUBCHEM_PHARMACOPHORE_FEATURES>
11
1 1 acceptor
1 2 acceptor
1 3 acceptor
1 3 donor
1 4 acceptor
1 4 donor
1 5 acceptor
1 6 cation
5 6 13 15 16 17 rings
6 1 7 8 10 11 12 rings
6 2 6 7 9 13 14 rings

> <PUBCHEM_HEAVY_ATOM_COUNT>
18

> <PUBCHEM_ATOM_DEF_STEREO_COUNT>
3

> <PUBCHEM_ATOM_UDEF_STEREO_COUNT>
0

> <PUBCHEM_BOND_DEF_STEREO_COUNT>
0

> <PUBCHEM_BOND_UDEF_STEREO_COUNT>
0

> <PUBCHEM_ISOTOPIC_ATOM_COUNT>
0

> <PUBCHEM_COMPONENT_COUNT>
1

> <PUBCHEM_CACTVS_TAUTO_COUNT>
1

> <PUBCHEM_CONFORMER_ID>
749019500000001

> <PUBCHEM_MMFF94_ENERGY>
37.6157

> <PUBCHEM_FEATURE_SELFOVERLAP>
55.961

> <PUBCHEM_SHAPE_FINGERPRINT>
10498660 4 18410571743722413349
10608611 8 18201715193072241097
10646746 165 18413103961591690600
11132069 177 18410290298282699641
11552529 35 15141834802138291641
11640471 11 17604161435745400540
12173636 292 18340201878647631349
12236239 1 17603578655748735682
12403259 415 18131637806923202160
12491281 212 17968103065815162026
12500047 106 18341894086592045894
12788726 201 17391083890560258874
13296908 3 17418098732044739398
14739800 52 18047463715566352248
15219456 202 17847062198610743562
15309172 13 15213016055090344521
15375358 24 17917704703998644928
15775835 57 18334577897871872329
16945 1 18337394966615766419
17357990 137 17603879900481035070
1741750 31 18340206285231166937
18186145 218 17989216935942515226
19026448 4 17917994987990111958
19026448 5 17894909659149162784
19422 9 17749105621070871794
200 152 15267068021190058146
20279233 1 17847062203063992362
20510252 161 18272089435235117259
20645477 56 18341897377011806673
20645477 70 16559039268087898428
20871999 31 18341057397140574733
22926399 65 18411422791132997269
23402539 116 18341043064998277116
23557571 272 18272094919449528316
23559900 14 18272657801469502166
3268164 11 18342447180138647303
4028521 119 18202282468448132393
474 4 16517948487260366444
495365 180 17346022377837673362
573450 72 18261660537032848098
633830 44 17676214558690990718
69090 78 17775281716068845967
7364860 26 18125717877094807947
77492 1 17530961414624186194

> <PUBCHEM_SHAPE_MULTIPOLES>
336.1
7.85
1.92
1.12
0.31
0.02
0.15
-3.33
0.6
-2.08
-0.02
1.33
-0.06
0.27

> <PUBCHEM_SHAPE_SELFOVERLAP>
725.115

> <PUBCHEM_SHAPE_VOLUME>
183.1

> <PUBCHEM_COORDINATE_TYPE>
2
5
10

$$$$
122363508
  SciTegic09112316443D

 61 62  0  0  0  0            999 V2000
    2.1718    0.2060   -1.8536 O   0  0
    3.8491    0.2041    2.6104 O   0  0
   -0.5715   -1.0801    1.8247 O   0  0
   -0.2405    0.4630   -2.1507 O   0  0
   -8.1152   -0.7988    0.6612 O   0  0
    3.1494    0.5539    0.3230 C   0  0
    3.2846    2.0833    0.3219 C   0  0
    4.4457   -0.0871   -0.1993 C   0  0
    2.0104    0.1941   -0.6325 C   0  0
    2.9548    0.1047    1.7687 C   0  0
    0.6719   -0.1149   -0.0338 C   0  0
    1.6485   -0.4457    2.1911 C   0  0
    2.0148    2.7293    0.7781 C   0  0
    4.4054   -1.5726   -0.0343 C   0  0
    0.6114   -0.5324    1.3536 C   0  0
    1.2148    3.5554    0.0776 C   0  0
    4.5341   -2.5095   -0.9929 C   0  0
   -0.3883    0.0645   -0.8386 C   0  0
    1.5512    3.9188   -1.3442 C   0  0
   -0.0530    4.1748    0.5936 C   0  0
    4.7601   -2.1083   -2.4263 C   0  0
    4.4845   -3.9935   -0.7636 C   0  0
   -1.7486   -0.1486   -0.3856 C   0  0
   -0.5877   -2.4759    1.6150 C   0  0
   -2.8490    0.0134   -1.1397 C   0  0
   -4.2288   -0.1981   -0.6670 C   0  0
   -4.4660   -0.9736    0.4678 C   0  0
   -5.2976    0.3759   -1.3554 C   0  0
   -5.7720   -1.1752    0.9143 C   0  0
   -6.6036    0.1743   -0.9090 C   0  0
   -6.8408   -0.6012    0.2258 C   0  0
    4.0858    2.4001    1.0027 H   0  0
    3.5894    2.4179   -0.6738 H   0  0
    4.6573    0.2405   -1.2197 H   0  0
    5.2992    0.2737    0.3920 H   0  0
    1.5663   -0.7751    3.2220 H   0  0
    1.7291    2.5338    1.8105 H   0  0
    4.2917   -1.9445    0.9824 H   0  0
    1.1108    4.8886   -1.6038 H   0  0
    2.6240    4.0298   -1.5200 H   0  0
    1.1439    3.1752   -2.0355 H   0  0
   -0.2702    3.8531    1.6175 H   0  0
   -0.9013    3.8835   -0.0342 H   0  0
    0.0262    5.2665    0.5951 H   0  0
    4.1932   -2.7716   -3.0903 H   0  0
    4.4368   -1.0988   -2.6808 H   0  0
    5.8205   -2.2094   -2.6796 H   0  0
    5.4172   -4.4617   -1.0939 H   0  0
    4.3463   -4.2336    0.2957 H   0  0
    3.6521   -4.4387   -1.3180 H   0  0
   -1.9669   -0.2543    0.6596 H   0  0
   -1.5563   -2.8593    1.9502 H   0  0
    0.1887   -2.9743    2.2064 H   0  0
   -0.4727   -2.7383    0.5574 H   0  0
    0.6413    0.8271   -2.3128 H   0  0
   -2.7590    0.2606   -2.1951 H   0  0
   -3.6708   -1.4637    1.0214 H   0  0
   -5.1308    0.9842   -2.2411 H   0  0
   -5.9516   -1.7853    1.7954 H   0  0
   -7.4276    0.6270   -1.4541 H   0  0
   -8.7270   -0.3305    0.0676 H   0  0
  1  9  2  0
  2 10  2  0
  3 15  1  0
  3 24  1  0
  4 18  1  0
  4 55  1  0
  5 31  1  0
  5 61  1  0
  6  7  1  0
  6  8  1  0
  6  9  1  0
  6 10  1  0
  7 13  1  0
  7 32  1  0
  7 33  1  0
  8 14  1  0
  8 34  1  0
  8 35  1  0
  9 11  1  0
 10 12  1  0
 11 15  1  0
 11 18  2  0
 12 15  2  0
 12 36  1  0
 13 16  2  0
 13 37  1  0
 14 17  2  0
 14 38  1  0
 16 19  1  0
 16 20  1  0
 17 21  1  0
 17 22  1  0
 18 23  1  0
 19 39  1  0
 19 40  1  0
 19 41  1  0
 20 42  1  0
 20 43  1  0
 20 44  1  0
 21 45  1  0
 21 46  1  0
 21 47  1  0
 22 48  1  0
 22 49  1  0
 22 50  1  0
 23 25  2  0
 23 51  1  0
 24 52  1  0
 24 53  1  0
 24 54  1  0
 25 26  1  0
 25 56  1  0
 26 27  2  0
 26 28  1  0
 27 29  1  0
 27 57  1  0
 28 30  2  0
 28 58  1  0
 29 31  2  0
 29 59  1  0
 30 31  1  0
 30 60  1  0
M  END
> <Name>
122363508

> <OBJECTID>
9223372762707591182

> <PUBCHEM_COMPOUND_CID>
122363508

> <PUBCHEM_CONFORMER_RMSD>
1

> <PUBCHEM_CONFORMER_DIVERSEORDER>
2
60
29
56
40
48
9
54
50
36
15
18
38
57
12
53
28
31
5
23
14
20
26
47
34
59
24
55
33
35
44
39
22
45
27
32
13
30
8
37
43
10
42
41
58
11
4
46
7
25
51
6
52
21
3
17
1
19
16
49

> <PUBCHEM_MMFF94_PARTIAL_CHARGES>
42
1 -0.57
10 0.49
11 0.01
12 -0.14
13 -0.29
14 -0.29
15 0.08
16 -0.28
17 -0.28
18 0.08
19 0.14
2 -0.57
20 0.14
21 0.14
22 0.14
23 -0.15
24 0.28
25 -0.18
26 0.03
27 -0.15
28 -0.15
29 -0.15
3 -0.36
30 -0.15
31 0.08
36 0.15
37 0.15
38 0.15
4 -0.53
5 -0.53
51 0.15
55 0.45
56 0.15
57 0.15
58 0.15
59 0.15
6 0.12
60 0.15
61 0.45
7 0.14
8 0.14
9 0.49

> <PUBCHEM_EFFECTIVE_ROTOR_COUNT>
7.2

> <PUBCHEM_PHARMACOPHORE_FEATURES>
9
1 1 acceptor
1 2 acceptor
1 3 acceptor
1 4 donor
1 5 donor
3 16 19 20 hydrophobe
3 17 21 22 hydrophobe
6 26 27 28 29 30 31 rings
6 6 9 10 11 12 15 rings

> <PUBCHEM_HEAVY_ATOM_COUNT>
31

> <PUBCHEM_ATOM_DEF_STEREO_COUNT>
0

> <PUBCHEM_ATOM_UDEF_STEREO_COUNT>
0

> <PUBCHEM_BOND_DEF_STEREO_COUNT>
2

> <PUBCHEM_BOND_UDEF_STEREO_COUNT>
0

> <PUBCHEM_ISOTOPIC_ATOM_COUNT>
0

> <PUBCHEM_COMPONENT_COUNT>
1

> <PUBCHEM_CACTVS_TAUTO_COUNT>
24

> <PUBCHEM_CONFORMER_ID>
074B1E7400000002

> <PUBCHEM_MMFF94_ENERGY>
100.7717

> <PUBCHEM_FEATURE_SELFOVERLAP>
45.671

> <PUBCHEM_SHAPE_FINGERPRINT>
11578080 2 17607537022210740953
12166972 35 18131633391955603329
12422481 6 16987722290110854261
13533116 47 17846778486041013374
13782708 43 18186799206336700647
14537116 161 18333731312905656181
14955137 171 18410294714131299583
15001296 14 15936984070968113103
15420108 30 17622698227371029440
17909252 39 18265891346271404306
21315759 40 17418088850401209959
21365058 113 18337121089467910036
23559900 14 18339645641153034967
3411729 13 18044934812319330204
34797466 226 18334857251298307947
4144715 1 18409736183926150569
513532 50 18409158918530480786
58260988 647 18269565935527503882
70251023 43 18340491041726597362

> <PUBCHEM_SHAPE_MULTIPOLES>
608.62
14.47
3.91
2.05
31.11
3.24
-0.26
-9.49
1.95
-5.84
0.6
-1.57
-0.52
2.16

> <PUBCHEM_SHAPE_SELFOVERLAP>
1283.208

> <PUBCHEM_SHAPE_VOLUME>
340.1

> <PUBCHEM_COORDINATE_TYPE>
2
5
10

$$$$
122363509
  SciTegic09112316443D

 71 73  0  0  1  0            999 V2000
   -1.1862   -0.3979    0.2501 O   0  0
    2.8083    1.7292    1.7916 O   0  0
    2.9824   -1.4743   -1.7858 O   0  0
    0.6683   -2.5521   -2.6455 O   0  0
   -7.3940   -1.2723    0.3984 O   0  0
    3.0389    0.2958   -0.1466 C   0  0
    2.1462    0.8561    0.9444 C   0  0
    4.2945   -0.3433    0.4787 C   0  0
    3.4516    1.4224   -1.1088 C   0  0
    2.3429   -0.7869   -0.9867 C   0  0
    0.8689   -0.9776   -0.8682 C   0  0
    0.8368    0.5516    1.0693 C   0  0
    0.1881   -0.3191    0.0882 C   0  0
   -1.9053   -0.8066   -0.9188 C   0  0  1  0  0  0
   -1.3484   -2.1196   -1.4477 C   0  0
    0.1134   -1.9210   -1.7492 C   0  0
   -0.0402    1.0568    2.1914 C   0  0
    3.9121   -1.3742    1.4904 C   0  0
    2.2599    1.9625   -1.8310 C   0  0
   -3.3717   -0.9304   -0.5669 C   0  0
    4.2504   -2.6774    1.5030 C   0  0
    1.8161    3.2336   -1.8478 C   0  0
   -0.6001    2.4067    1.8806 C   0  0
   -4.3102   -0.1044   -1.1856 C   0  0
   -3.7850   -1.8713    0.3762 C   0  0
   -1.8967    2.7668    1.8214 C   0  0
    5.1231   -3.2494    0.4176 C   0  0
    3.8335   -3.6688    2.5519 C   0  0
    0.6064    3.7172   -2.5960 C   0  0
    2.5492    4.3076   -1.0891 C   0  0
   -5.6617   -0.2190   -0.8611 C   0  0
   -5.1366   -1.9860    0.7009 C   0  0
   -6.0750   -1.1599    0.0824 C   0  0
   -2.9811    1.7589    2.0960 C   0  0
   -2.3988    4.1463    1.5023 C   0  0
    4.9603   -0.7225   -0.3007 H   0  0
    4.8878    0.4219    0.9984 H   0  0
    4.0292    2.1889   -0.5843 H   0  0
    4.1339    1.0244   -1.8731 H   0  0
   -1.7819   -0.0181   -1.6755 H   0  0
   -1.8683   -2.4170   -2.3651 H   0  0
   -1.4145   -2.9366   -0.7207 H   0  0
   -0.7706    0.3029    2.4907 H   0  0
    0.5632    1.1620    3.1035 H   0  0
    3.3212   -1.0272    2.3365 H   0  0
    1.7117    1.2582   -2.4541 H   0  0
    2.1763    2.1344    2.4051 H   0  0
    0.1368    3.1867    1.6900 H   0  0
   -4.0034    0.6339   -1.9215 H   0  0
   -3.0686   -2.5153    0.8786 H   0  0
    4.8066   -4.2734    0.1862 H   0  0
    6.1635   -3.2904    0.7558 H   0  0
    5.0826   -2.7135   -0.5314 H   0  0
    3.2262   -3.1987    3.3324 H   0  0
    4.7135   -4.1086    3.0321 H   0  0
    3.2387   -4.4717    2.1047 H   0  0
    0.1272    2.9063   -3.1544 H   0  0
    0.8865    4.4968   -3.3116 H   0  0
   -0.1344    4.1261   -1.9013 H   0  0
    1.8477    5.0821   -0.7574 H   0  0
    3.0365    3.9488   -0.1798 H   0  0
    3.2942    4.7851   -1.7333 H   0  0
   -6.3880    0.4274   -1.3460 H   0  0
   -5.4454   -2.7209    1.4395 H   0  0
   -2.6606    0.7292    2.2401 H   0  0
   -3.6909    1.7512    1.2618 H   0  0
   -3.5319    2.0522    2.9967 H   0  0
   -2.9914    4.5394    2.3345 H   0  0
   -1.5738    4.8428    1.3199 H   0  0
   -3.0241    4.1267    0.6040 H   0  0
   -7.4994   -1.9712    1.0666 H   0  0
  1 13  1  0
  1 14  1  0
  2  7  1  0
  2 47  1  0
  3 10  2  0
  4 16  2  0
  5 33  1  0
  5 71  1  0
  6  7  1  0
  6  8  1  0
  6  9  1  0
  6 10  1  0
  7 12  2  0
  8 18  1  0
  8 36  1  0
  8 37  1  0
  9 19  1  0
  9 38  1  0
  9 39  1  0
 10 11  1  0
 11 13  2  0
 11 16  1  0
 12 13  1  0
 12 17  1  0
 14 15  1  0
 14 20  1  0
 14 40  1  0
 15 16  1  0
 15 41  1  0
 15 42  1  0
 17 23  1  0
 17 43  1  0
 17 44  1  0
 18 21  2  0
 18 45  1  0
 19 22  2  0
 19 46  1  0
 20 24  2  0
 20 25  1  0
 21 27  1  0
 21 28  1  0
 22 29  1  0
 22 30  1  0
 23 26  2  0
 23 48  1  0
 24 31  1  0
 24 49  1  0
 25 32  2  0
 25 50  1  0
 26 34  1  0
 26 35  1  0
 27 51  1  0
 27 52  1  0
 27 53  1  0
 28 54  1  0
 28 55  1  0
 28 56  1  0
 29 57  1  0
 29 58  1  0
 29 59  1  0
 30 60  1  0
 30 61  1  0
 30 62  1  0
 31 33  2  0
 31 63  1  0
 32 33  1  0
 32 64  1  0
 34 65  1  0
 34 66  1  0
 34 67  1  0
 35 68  1  0
 35 69  1  0
 35 70  1  0
M  END
> <Name>
122363509

> <OBJECTID>
9223372767002558478

> <PUBCHEM_COMPOUND_CID>
122363509

> <PUBCHEM_CONFORMER_RMSD>
1

> <PUBCHEM_CONFORMER_DIVERSEORDER>
2
36
168
134
9
139
146
188
27
34
164
89
130
186
171
67
49
47
173
52
37
108
109
184
43
189
62
179
156
121
170
149
102
124
111
127
132
160
99
59
187
125
110
152
119
38
180
155
88
77
128
145
120
15
28
181
190
177
161
73
14
66
12
154
165
178
167
135
16
74
82
87
157
136
131
31
94
182
92
83
90
13
78
105
95
51
126
169
162
53
61
133
151
98
72
46
106
123
140
142
80
148
100
41
69
101
129
45
115
65
159
96
158
150
56
138
64
175
70
55
29
144
84
44
166
7
93
174
176
137
153
117
103
107
26
11
54
32
185
85
58
104
35
6
172
4
60
63
42
24
97
25
114
76
147
163
57
183
116
33
75
39
118
23
19
112
86
22
10
113
48
50
68
3
40
91
21
141
8
143
122
1
71
5
18
20
30
79
81
17

> <PUBCHEM_MMFF94_PARTIAL_CHARGES>
44
1 -0.36
10 0.49
11 0.03
12 -0.14
13 0.08
14 0.42
15 0.06
16 0.49
17 0.28
18 -0.29
19 -0.29
2 -0.53
20 -0.14
21 -0.28
22 -0.28
23 -0.29
24 -0.15
25 -0.15
26 -0.28
27 0.14
28 0.14
29 0.14
3 -0.57
30 0.14
31 -0.15
32 -0.15
33 0.08
34 0.14
35 0.14
4 -0.57
45 0.15
46 0.15
47 0.45
48 0.15
49 0.15
5 -0.53
50 0.15
6 0.2
63 0.15
64 0.15
7 -0.06
71 0.45
8 0.14
9 0.14

> <PUBCHEM_EFFECTIVE_ROTOR_COUNT>
7.8

> <PUBCHEM_PHARMACOPHORE_FEATURES>
11
1 1 acceptor
1 2 donor
1 3 acceptor
1 4 acceptor
1 5 donor
3 21 27 28 hydrophobe
3 22 29 30 hydrophobe
3 26 34 35 hydrophobe
6 1 11 13 14 15 16 rings
6 20 24 25 31 32 33 rings
6 6 7 10 11 12 13 rings

> <PUBCHEM_HEAVY_ATOM_COUNT>
35

> <PUBCHEM_ATOM_DEF_STEREO_COUNT>
0

> <PUBCHEM_ATOM_UDEF_STEREO_COUNT>
1

> <PUBCHEM_BOND_DEF_STEREO_COUNT>
0

> <PUBCHEM_BOND_UDEF_STEREO_COUNT>
0

> <PUBCHEM_ISOTOPIC_ATOM_COUNT>
0

> <PUBCHEM_COMPONENT_COUNT>
1

> <PUBCHEM_CACTVS_TAUTO_COUNT>
18

> <PUBCHEM_CONFORMER_ID>
074B1E7500000002

> <PUBCHEM_MMFF94_ENERGY>
78.5657

> <PUBCHEM_FEATURE_SELFOVERLAP>
55.849

> <PUBCHEM_SHAPE_FINGERPRINT>
10675989 125 17982460591820716553
11578080 2 17979316869797879488
11763715 3 17752214894526902902
12166972 35 18408037416595951373
12293681 160 17695648620170830048
12422481 6 17838332982772416546
12788726 201 18272938214951071906
13009979 54 18340488867866594704
13140716 1 17630593738042776467
13782708 43 18334573599306883379
15219462 58 17390554887906493160
19319366 153 18049160269853289082
20642791 105 18198902509522131073
20764821 26 17774142639423814045
21133410 90 17986083310946361541
2132832 1 18411700945926057888
21421861 104 18129929183366109826
21814621 53 17312822685131222097
22182313 1 17059212519095659198
23559900 14 18186797006516996555
3052486 1 17917727798354767985
3493558 16 17246406869564804717
376196 1 16122170579386174816
3886686 26 17261873252534904171
4144715 1 17821729451286935927
57527573 199 17696458956087608200
70251023 43 17749385932137831744

> <PUBCHEM_SHAPE_MULTIPOLES>
690.94
11.23
5.01
2.63
14.83
3.77
-0.09
-9.51
-2.03
-3.65
-0.1
-1
0.91
-3.54

> <PUBCHEM_SHAPE_SELFOVERLAP>
1462.512

> <PUBCHEM_SHAPE_VOLUME>
385.5

> <PUBCHEM_COORDINATE_TYPE>
2
5
10

$$$$
122363510
  SciTegic09112316443D

 57 58  0  0  0  0            999 V2000
    4.8194    2.9373    0.5773 O   0  0
    0.4786   -0.1885   -1.6483 O   0  0
    4.1534   -2.1888    0.6757 O   0  0
   -0.1917   -4.0797    1.0660 O   0  0
   -1.8179   -3.0710   -1.2338 O   0  0
   -6.7531    3.5353    0.5643 O   0  0
    4.5410    2.0551   -0.5121 C   0  0
    3.5809    0.9559   -0.0139 C   0  0
    3.2489   -0.1179   -1.0597 C   0  0
    3.9458    2.8739   -1.6597 C   0  0
    5.8639    1.4204   -0.9539 C   0  0
    2.3261   -1.1708   -0.4970 C   0  0
    0.9695   -1.1566   -0.8209 C   0  0
    3.6369    3.5663    1.0440 C   0  0
    2.8311   -2.1588    0.3483 C   0  0
    0.1178   -2.1305   -0.2994 C   0  0
    1.9792   -3.1326    0.8698 C   0  0
    0.6227   -3.1184    0.5460 C   0  0
    3.9886    4.4862    2.1937 C   0  0
   -1.3010   -2.1173   -0.6366 C   0  0
   -2.1121   -0.9082   -0.2715 C   0  0
   -0.8114   -3.7949    2.3184 C   0  0
   -3.4139   -0.8415   -0.5877 C   0  0
   -4.2889    0.3055   -0.2874 C   0  0
   -3.7325    1.5574   -0.0251 C   0  0
   -5.6737    0.1390   -0.2639 C   0  0
   -4.5605    2.6427    0.2608 C   0  0
   -6.5019    1.2243    0.0222 C   0  0
   -5.9453    2.4762    0.2844 C   0  0
    2.6130    1.3761    0.2786 H   0  0
    3.9916    0.5029    0.8980 H   0  0
    4.1641   -0.6286   -1.3836 H   0  0
    2.8532    0.3276   -1.9776 H   0  0
    4.0000    2.3270   -2.6078 H   0  0
    4.4814    3.8211   -1.7915 H   0  0
    2.8873    3.1091   -1.5043 H   0  0
    5.7663    0.8197   -1.8628 H   0  0
    6.6111    2.1991   -1.1489 H   0  0
    6.2806    0.7915   -0.1589 H   0  0
    3.1608    4.1815    0.2765 H   0  0
    2.9160    2.8572    1.4540 H   0  0
    2.3665   -3.9060    1.5286 H   0  0
    4.4611    3.9252    3.0070 H   0  0
    4.7084    5.2465    1.8724 H   0  0
    3.0980    4.9879    2.5832 H   0  0
    0.9601    0.6416   -1.5001 H   0  0
    4.3169   -2.9408    1.2703 H   0  0
   -1.5941   -0.1256    0.2708 H   0  0
   -1.4510   -4.6411    2.5837 H   0  0
   -1.4318   -2.8959    2.2523 H   0  0
   -0.0544   -3.6709    3.0993 H   0  0
   -3.8957   -1.6678   -1.1048 H   0  0
   -2.6620    1.7384   -0.0525 H   0  0
   -6.1247   -0.8299   -0.4644 H   0  0
   -4.1219    3.6167    0.4602 H   0  0
   -7.5790    1.0816    0.0380 H   0  0
   -7.6796    3.2403    0.5381 H   0  0
  1  7  1  0
  1 14  1  0
  2 13  1  0
  2 46  1  0
  3 15  1  0
  3 47  1  0
  4 18  1  0
  4 22  1  0
  5 20  2  0
  6 29  1  0
  6 57  1  0
  7  8  1  0
  7 10  1  0
  7 11  1  0
  8  9  1  0
  8 30  1  0
  8 31  1  0
  9 12  1  0
  9 32  1  0
  9 33  1  0
 10 34  1  0
 10 35  1  0
 10 36  1  0
 11 37  1  0
 11 38  1  0
 11 39  1  0
 12 13  1  0
 12 15  2  0
 13 16  2  0
 14 19  1  0
 14 40  1  0
 14 41  1  0
 15 17  1  0
 16 18  1  0
 16 20  1  0
 17 18  2  0
 17 42  1  0
 19 43  1  0
 19 44  1  0
 19 45  1  0
 20 21  1  0
 21 23  2  0
 21 48  1  0
 22 49  1  0
 22 50  1  0
 22 51  1  0
 23 24  1  0
 23 52  1  0
 24 25  2  0
 24 26  1  0
 25 27  1  0
 25 53  1  0
 26 28  2  0
 26 54  1  0
 27 29  2  0
 27 55  1  0
 28 29  1  0
 28 56  1  0
M  END
> <Name>
122363510

> <OBJECTID>
9223372771297525774

> <PUBCHEM_COMPOUND_CID>
122363510

> <PUBCHEM_CONFORMER_RMSD>
1

> <PUBCHEM_CONFORMER_DIVERSEORDER>
9
33
49
97
90
81
70
53
76
60
71
67
68
57
69
94
36
54
77
6
95
26
78
100
102
101
79
87
27
5
85
50
98
83
92
47
45
20
48
58
12
25
31
80
41
89
17
39
74
72
63
61
93
28
15
56
65
16
66
11
42
99
73
43
62
19
29
8
23
82
59
35
44
84
64
10
18
40
14
91
38
75
32
55
30
51
2
96
46
21
3
52
34
7
24
13
37
88
22
1
86
4

> <PUBCHEM_MMFF94_PARTIAL_CHARGES>
35
1 -0.56
12 -0.14
13 0.08
14 0.28
15 0.08
16 0.09
17 -0.15
18 0.08
2 -0.53
20 0.47
21 -0.14
22 0.28
23 -0.18
24 0.03
25 -0.15
26 -0.15
27 -0.15
28 -0.15
29 0.08
3 -0.53
4 -0.36
42 0.15
46 0.45
47 0.45
48 0.15
5 -0.57
52 0.15
53 0.15
54 0.15
55 0.15
56 0.15
57 0.45
6 -0.53
7 0.28
9 0.14

> <PUBCHEM_EFFECTIVE_ROTOR_COUNT>
9

> <PUBCHEM_PHARMACOPHORE_FEATURES>
9
1 1 acceptor
1 2 donor
1 3 donor
1 4 acceptor
1 5 acceptor
1 6 donor
3 7 10 11 hydrophobe
6 12 13 15 16 17 18 rings
6 24 25 26 27 28 29 rings

> <PUBCHEM_HEAVY_ATOM_COUNT>
29

> <PUBCHEM_ATOM_DEF_STEREO_COUNT>
0

> <PUBCHEM_ATOM_UDEF_STEREO_COUNT>
0

> <PUBCHEM_BOND_DEF_STEREO_COUNT>
1

> <PUBCHEM_BOND_UDEF_STEREO_COUNT>
0

> <PUBCHEM_ISOTOPIC_ATOM_COUNT>
0

> <PUBCHEM_COMPONENT_COUNT>
1

> <PUBCHEM_CACTVS_TAUTO_COUNT>
292

> <PUBCHEM_CONFORMER_ID>
074B1E7600000009

> <PUBCHEM_MMFF94_ENERGY>
106.3554

> <PUBCHEM_FEATURE_SELFOVERLAP>
45.672

> <PUBCHEM_SHAPE_FINGERPRINT>
10937287 8 18410012164890973567
11331351 85 17766265489004267430
11720765 8 17773609226334702710
12107183 9 18187633740078014890
12788726 201 16960161154502891390
12925494 130 18336825398106848304
13878862 14 18117256104653696317
13944108 23 18122915226350736444
14223995 32 18341887546117146184
14251764 75 18412554197578557009
14705955 166 17610903774417841056
14739800 52 18341322387790047584
14790565 3 18413388722587511399
14849402 71 18188494562576493918
15142526 21 18333733503202184243
15475509 8 18196379113679340222
16067690 210 17542759341868146136
20739085 24 17749678380740335542
21033648 144 18187079534498855471
21049683 118 18041829709714108426
21133410 62 18337129915863177817
22122407 14 18268441127185355065
23845131 108 18186523207016271667
245318 6 18042706020782301613
2838139 119 18201997784771993524
376196 1 18343300400771833454
38570 142 18336842921853316102
50080093 196 17981343191442780209
508180 173 18340783541910711298
5104073 3 18040438776487687659
59124914 9 18410857672632554692
5951187 136 18130514063079633500
7288768 16 18114742736973497491
7808743 9 18341611551122390503
9849439 229 18337385045336212737
9981440 41 18120927571647906634

> <PUBCHEM_SHAPE_MULTIPOLES>
561.59
14.79
6.25
1.49
15.1
0.56
-0.52
20.53
0
-2.96
-3.7
-1.45
0.09
0.09

> <PUBCHEM_SHAPE_SELFOVERLAP>
1181.144

> <PUBCHEM_SHAPE_VOLUME>
317.2

> <PUBCHEM_COORDINATE_TYPE>
2
5
10

$$$$
122363511
  SciTegic09112316443D

 57 59  0  0  1  0            999 V2000
    0.0601    0.3935   -0.3481 O   0  0
   -1.8362   -3.3569   -0.4425 O   0  0
    4.6598    1.9058    0.0479 O   0  0
    3.6746   -2.6811   -0.6160 O   0  0
    2.6416    3.5517    0.0882 O   0  0
   -5.9616    2.1269   -0.1539 O   0  0
   -0.8425   -3.7770    0.4950 C   0  0
    0.2037   -2.6522    0.6308 C   0  0
    0.8766   -2.2315   -0.6890 C   0  0
    1.8584   -1.1213   -0.4865 C   0  0
    1.4155    0.1908   -0.3140 C   0  0
   -0.3454    1.5817    0.3491 C   0  0  1  0  0  0
    2.3449    1.2214   -0.1466 C   0  0
    0.3777    2.8112   -0.1972 C   0  0
   -1.5326   -4.0961    1.8231 C   0  0
   -0.1726   -5.0376   -0.0621 C   0  0
    1.8639    2.6147   -0.0476 C   0  0
    3.2243   -1.4042   -0.4592 C   0  0
    3.7131    0.9402   -0.1172 C   0  0
   -1.8466    1.7269    0.2150 C   0  0
    4.1488   -0.3764   -0.2701 C   0  0
   -2.5039   -2.1887    0.0057 C   0  0
   -2.4192    1.9144   -1.0431 C   0  0
   -2.6571    1.6739    1.3491 C   0  0
   -3.5417   -1.7893   -1.0216 C   0  0
   -3.8020    2.0484   -1.1671 C   0  0
   -4.0399    1.8079    1.2251 C   0  0
   -4.6123    1.9951   -0.0331 C   0  0
    5.0507    2.2078    1.3860 C   0  0
    0.9935   -3.0103    1.3084 H   0  0
   -0.2036   -1.7808    1.1549 H   0  0
    0.1231   -1.9130   -1.4203 H   0  0
    1.3687   -3.0900   -1.1570 H   0  0
   -0.0943    1.4460    1.4115 H   0  0
    0.0806    3.7070    0.3597 H   0  0
    0.1860    2.9763   -1.2633 H   0  0
   -2.4458   -4.6820    1.6692 H   0  0
   -0.8653   -4.6705    2.4761 H   0  0
   -1.8036   -3.1968    2.3862 H   0  0
   -0.8869   -5.8698   -0.0788 H   0  0
    0.6885   -5.3434    0.5408 H   0  0
    0.1451   -4.9079   -1.1017 H   0  0
    5.2140   -0.5956   -0.2494 H   0  0
   -3.0434   -2.3605    0.9406 H   0  0
   -1.8383   -1.3355    0.1202 H   0  0
   -1.8067    1.9456   -1.9399 H   0  0
   -2.2261    1.5276    2.3358 H   0  0
    4.6460   -2.6840   -0.5681 H   0  0
   -3.0623   -1.5209   -1.9688 H   0  0
   -4.2172   -2.6251   -1.2328 H   0  0
   -4.1366   -0.9428   -0.6729 H   0  0
   -4.2360    2.1903   -2.1532 H   0  0
   -4.6661    1.7651    2.1121 H   0  0
    5.6626    3.1137    1.3682 H   0  0
    5.6508    1.3882    1.7935 H   0  0
    4.1808    2.3842    2.0268 H   0  0
   -6.1834    2.2475   -1.0932 H   0  0
  1 11  1  0
  1 12  1  0
  2  7  1  0
  2 22  1  0
  3 19  1  0
  3 29  1  0
  4 18  1  0
  4 48  1  0
  5 17  2  0
  6 28  1  0
  6 57  1  0
  7  8  1  0
  7 15  1  0
  7 16  1  0
  8  9  1  0
  8 30  1  0
  8 31  1  0
  9 10  1  0
  9 32  1  0
  9 33  1  0
 10 11  1  0
 10 18  2  0
 11 13  2  0
 12 14  1  0
 12 20  1  0
 12 34  1  0
 13 17  1  0
 13 19  1  0
 14 17  1  0
 14 35  1  0
 14 36  1  0
 15 37  1  0
 15 38  1  0
 15 39  1  0
 16 40  1  0
 16 41  1  0
 16 42  1  0
 18 21  1  0
 19 21  2  0
 20 23  2  0
 20 24  1  0
 21 43  1  0
 22 25  1  0
 22 44  1  0
 22 45  1  0
 23 26  1  0
 23 46  1  0
 24 27  2  0
 24 47  1  0
 25 49  1  0
 25 50  1  0
 25 51  1  0
 26 28  2  0
 26 52  1  0
 27 28  1  0
 27 53  1  0
 29 54  1  0
 29 55  1  0
 29 56  1  0
M  END
> <Name>
122363511

> <OBJECTID>
9223372775592493070

> <PUBCHEM_COMPOUND_CID>
122363511

> <PUBCHEM_CONFORMER_RMSD>
1

> <PUBCHEM_CONFORMER_DIVERSEORDER>
1
60
51
61
27
42
34
41
38
67
62
21
53
28
43
57
66
65
44
35
63
59
47
26
39
10
2
31
33
36
29
32
19
49
56
15
22
12
55
68
17
24
45
52
14
25
13
69
18
23
11
48
16
40
64
46
30
54
20
8
5
37
4
3
58
9
50
7
6

> <PUBCHEM_MMFF94_PARTIAL_CHARGES>
32
1 -0.36
10 -0.14
11 0.08
12 0.42
13 0.09
14 0.06
17 0.42
18 0.08
19 0.08
2 -0.56
20 -0.14
21 -0.15
22 0.28
23 -0.15
24 -0.15
26 -0.15
27 -0.15
28 0.08
29 0.28
3 -0.36
4 -0.53
43 0.15
46 0.15
47 0.15
48 0.45
5 -0.57
52 0.15
53 0.15
57 0.45
6 -0.53
7 0.28
9 0.14

> <PUBCHEM_EFFECTIVE_ROTOR_COUNT>
7.6

> <PUBCHEM_PHARMACOPHORE_FEATURES>
10
1 1 acceptor
1 2 acceptor
1 3 acceptor
1 4 donor
1 5 acceptor
1 6 donor
3 7 15 16 hydrophobe
6 1 11 12 13 14 17 rings
6 10 11 13 18 19 21 rings
6 20 23 24 26 27 28 rings

> <PUBCHEM_HEAVY_ATOM_COUNT>
29

> <PUBCHEM_ATOM_DEF_STEREO_COUNT>
0

> <PUBCHEM_ATOM_UDEF_STEREO_COUNT>
1

> <PUBCHEM_BOND_DEF_STEREO_COUNT>
0

> <PUBCHEM_BOND_UDEF_STEREO_COUNT>
0

> <PUBCHEM_ISOTOPIC_ATOM_COUNT>
0

> <PUBCHEM_COMPONENT_COUNT>
1

> <PUBCHEM_CACTVS_TAUTO_COUNT>
18

> <PUBCHEM_CONFORMER_ID>
074B1E7700000001

> <PUBCHEM_MMFF94_ENERGY>
99.056

> <PUBCHEM_FEATURE_SELFOVERLAP>
50.788

> <PUBCHEM_SHAPE_FINGERPRINT>
10074138 170 18121467367648452232
10190206 1 17179708342403885844
10675989 125 18049715222810564689
1100329 8 18338796689633639874
11135609 187 18339067221608946837
11513181 2 18130790091869508422
11578080 2 16987700458913603482
12236239 1 17632573808693724373
12293681 4 18049714419276880791
12422481 6 18047508679509448411
12788726 201 18195792184390352235
13140716 1 18340206284899000346
13540713 4 18128827507512412596
1361 2 18337110069214817633
13692114 37 18198606925551147591
138480 1 17545320779027775383
13911987 19 18046371668052828988
140371 6 18047471415529363470
14681490 219 18053931025791299751
16112460 7 18270971136977465329
17138139 8 17843089698150340189
19427546 62 18409731776493886237
19591789 44 18122350081710821790
19930381 70 17977105656891923169
20028762 73 18127968607419523351
20511986 3 17630307667984237745
21033648 29 18263071150354371732
21197605 99 18341339959361650687
21796203 349 17474701367331288331
22182313 1 18058462066043306260
23558518 356 17899698148268581864
23559900 14 18343299258859191008
3298306 158 18044938961647251221
338550 245 18335427897812206941
463206 1 16679788433634730397
469060 322 17313101977953674071
5309563 4 17617942431052076267
653340 110 18124872610698706712
9777508 108 18339359798389750304

> <PUBCHEM_SHAPE_MULTIPOLES>
561.59
9.05
6.22
1.13
0.93
7.09
0.31
-7.82
0.25
1.6
1.03
0.54
0.17
1.02

> <PUBCHEM_SHAPE_SELFOVERLAP>
1201.325

> <PUBCHEM_SHAPE_VOLUME>
311.8

> <PUBCHEM_COORDINATE_TYPE>
2
5
10

$$$$
122363512
  SciTegic09112316443D

 61 63  0  0  0  0            999 V2000
   -0.3757   -2.2629   -0.4849 O   0  0
    4.2949   -1.7055    0.6579 O   0  0
    1.8758    1.7692   -1.5384 O   0  0
   -0.5096    0.5926   -2.7647 O   0  0
   -7.5287    1.5403    1.8250 O   0  0
   -0.4435   -3.4807    0.2805 C   0  0
    0.8742   -4.2697    0.2142 C   0  0
    2.0479   -3.4329    0.7031 C   0  0
    1.9892   -2.0598    0.1025 C   0  0
    0.7994   -1.5599   -0.4397 C   0  0
   -0.8603   -3.1418    1.7199 C   0  0
   -1.5559   -4.3203   -0.3645 C   0  0
    3.1314   -1.2475    0.1087 C   0  0
    0.7654   -0.2789   -0.9984 C   0  0
    3.0921    0.0338   -0.4415 C   0  0
    1.9102    0.5166   -0.9982 C   0  0
    4.3186    0.8896   -0.4335 C   0  0
   -0.4698    0.2406   -1.5792 C   0  0
    4.6184    1.4682    0.9261 C   0  0
   -1.6760    0.3662   -0.6961 C   0  0
    5.2028    2.6464    1.2161 C   0  0
    1.5273    2.8398   -0.6644 C   0  0
   -2.8229    0.8652   -1.1804 C   0  0
    5.4725    3.1638    2.6005 C   0  0
    5.6562    3.5639    0.1116 C   0  0
   -4.0551    1.0432   -0.3923 C   0  0
   -4.2350    0.3285    0.7920 C   0  0
   -5.0425    1.9255   -0.8312 C   0  0
   -5.4022    0.4957    1.5372 C   0  0
   -6.2096    2.0928   -0.0861 C   0  0
   -6.3894    1.3779    1.0981 C   0  0
    1.0692   -4.5533   -0.8297 H   0  0
    0.8110   -5.1990    0.7926 H   0  0
    2.9675   -3.9531    0.4102 H   0  0
    2.0330   -3.3540    1.7961 H   0  0
   -1.8247   -2.6203    1.7294 H   0  0
   -0.1497   -2.4642    2.2039 H   0  0
   -0.9495   -4.0441    2.3336 H   0  0
   -2.5065   -3.7741   -0.3670 H   0  0
   -1.7024   -5.2701    0.1601 H   0  0
   -1.3233   -4.5349   -1.4141 H   0  0
    5.1753    0.2762   -0.7433 H   0  0
    4.2424    1.6686   -1.1974 H   0  0
    4.1262   -2.4622    1.2407 H   0  0
    4.3400    0.8483    1.7782 H   0  0
   -1.5495    0.0753    0.3403 H   0  0
    1.9332    3.7664   -1.0794 H   0  0
    1.9344    2.6998    0.3417 H   0  0
    0.4386    2.9309   -0.6088 H   0  0
   -2.8889    1.1784   -2.2195 H   0  0
    6.5474    3.3009    2.7560 H   0  0
    5.1091    2.4717    3.3672 H   0  0
    4.9701    4.1245    2.7524 H   0  0
    6.6438    3.9759    0.3490 H   0  0
    5.7616    3.0760   -0.8601 H   0  0
    4.9566    4.3996    0.0075 H   0  0
   -3.5037   -0.3844    1.1613 H   0  0
   -4.9187    2.4916   -1.7512 H   0  0
   -5.5393   -0.0673    2.4565 H   0  0
   -6.9712    2.7831   -0.4387 H   0  0
   -8.1000    2.1863    1.3751 H   0  0
  1  6  1  0
  1 10  1  0
  2 13  1  0
  2 44  1  0
  3 16  1  0
  3 22  1  0
  4 18  2  0
  5 31  1  0
  5 61  1  0
  6  7  1  0
  6 11  1  0
  6 12  1  0
  7  8  1  0
  7 32  1  0
  7 33  1  0
  8  9  1  0
  8 34  1  0
  8 35  1  0
  9 10  1  0
  9 13  2  0
 10 14  2  0
 11 36  1  0
 11 37  1  0
 11 38  1  0
 12 39  1  0
 12 40  1  0
 12 41  1  0
 13 15  1  0
 14 16  1  0
 14 18  1  0
 15 16  2  0
 15 17  1  0
 17 19  1  0
 17 42  1  0
 17 43  1  0
 18 20  1  0
 19 21  2  0
 19 45  1  0
 20 23  2  0
 20 46  1  0
 21 24  1  0
 21 25  1  0
 22 47  1  0
 22 48  1  0
 22 49  1  0
 23 26  1  0
 23 50  1  0
 24 51  1  0
 24 52  1  0
 24 53  1  0
 25 54  1  0
 25 55  1  0
 25 56  1  0
 26 27  2  0
 26 28  1  0
 27 29  1  0
 27 57  1  0
 28 30  2  0
 28 58  1  0
 29 31  2  0
 29 59  1  0
 30 31  1  0
 30 60  1  0
M  END
> <Name>
122363512

> <OBJECTID>
9223372779887460366

> <PUBCHEM_COMPOUND_CID>
122363512

> <PUBCHEM_CONFORMER_RMSD>
0.8

> <PUBCHEM_CONFORMER_DIVERSEORDER>
1
29
187
205
232
279
239
204
20
212
31
54
156
188
251
190
216
211
171
144
19
117
50
70
266
228
178
285
110
270
215
136
181
2
91
272
195
186
79
86
180
170
97
132
87
213
81
173
40
260
177
145
23
74
8
194
182
123
120
118
113
11
75
137
141
252
30
241
259
105
196
242
83
273
43
207
24
5
73
267
49
77
268
102
163
98
202
27
201
214
60
9
199
65
253
169
119
18
109
17
69
13
143
14
176
121
276
99
100
55
139
277
78
26
51
246
64
191
167
116
53
236
230
158
92
111
174
160
133
254
193
263
128
226
63
265
256
200
258
225
115
95
59
175
233
165
248
222
45
284
281
36
210
223
189
108
244
28
47
72
67
58
261
166
155
269
278
12
151
147
172
129
247
198
25
135
104
22
157
57
7
229
32
197
208
61
179
130
152
3
282
93
34
15
124
221
131
122
283
164
21
82
154
48
33
149
159
140
227
6
39
114
142
249
192
245
138
220
112
224
107
275
185
4
234
150
153
10
168
101
146
240
44
71
37
88
238
38
103
68
106
134
16
76
162
206
274
262
237
231
235
184
42
148
56
217
52
255
94
66
62
126
85
89
127
203
219
41
84
280
250
264
35
218
80
257
161
243
46
90
96
209
183
125
271

> <PUBCHEM_MMFF94_PARTIAL_CHARGES>
37
1 -0.36
10 0.08
13 0.08
14 0.09
15 -0.14
16 0.08
17 0.28
18 0.47
19 -0.29
2 -0.53
20 -0.14
21 -0.28
22 0.28
23 -0.18
24 0.14
25 0.14
26 0.03
27 -0.15
28 -0.15
29 -0.15
3 -0.36
30 -0.15
31 0.08
4 -0.57
44 0.45
45 0.15
46 0.15
5 -0.53
50 0.15
57 0.15
58 0.15
59 0.15
6 0.28
60 0.15
61 0.45
8 0.14
9 -0.14

> <PUBCHEM_EFFECTIVE_ROTOR_COUNT>
6.8

> <PUBCHEM_PHARMACOPHORE_FEATURES>
10
1 1 acceptor
1 2 donor
1 3 acceptor
1 4 acceptor
1 5 donor
3 21 24 25 hydrophobe
3 6 11 12 hydrophobe
6 1 6 7 8 9 10 rings
6 26 27 28 29 30 31 rings
6 9 10 13 14 15 16 rings

> <PUBCHEM_HEAVY_ATOM_COUNT>
31

> <PUBCHEM_ATOM_DEF_STEREO_COUNT>
0

> <PUBCHEM_ATOM_UDEF_STEREO_COUNT>
0

> <PUBCHEM_BOND_DEF_STEREO_COUNT>
1

> <PUBCHEM_BOND_UDEF_STEREO_COUNT>
0

> <PUBCHEM_ISOTOPIC_ATOM_COUNT>
0

> <PUBCHEM_COMPONENT_COUNT>
1

> <PUBCHEM_CACTVS_TAUTO_COUNT>
393

> <PUBCHEM_CONFORMER_ID>
074B1E7800000001

> <PUBCHEM_MMFF94_ENERGY>
107.5053

> <PUBCHEM_FEATURE_SELFOVERLAP>
50.776

> <PUBCHEM_SHAPE_FINGERPRINT>
10074138 170 17823975838909546715
10165383 225 18261967271450691934
11070050 100 18411691076170164568
11112241 14 18409728444379330553
11578080 2 18341053038191907122
12035758 1 18190164708271266378
12390115 104 18267022954700979428
12422481 6 17894910741333488530
12596602 18 17989209235746622497
12788726 201 17468767733141901484
13140716 1 18262219085468158594
13402501 40 17605568643447599507
13726171 33 17901952165140733028
13955234 65 18265613178171533243
14020679 6 18198334250672932808
14565420 104 18412545401173973857
14705955 166 17405400670473027552
14790565 3 17753634608582206444
14955137 171 17975967671069228018
15324884 4 17315895694907327486
15338160 23 17975694210311223740
15357212 105 17973452293713828348
15420108 30 18337102462411245218
16114785 44 18126282175710366043
17913733 40 18409164390144534101
19319366 153 18272363140473655083
19438510 23 17774712173514601488
1979834 28 18187092710936240661
20511986 3 18339632366390084405
20642791 13 18194959875452264414
21033648 29 18337115656302449728
21197605 99 18188226355281678067
22122407 14 18057891243209746305
23559900 14 17823988818854265021
23569914 2 16914504883600564920
23845131 108 18335696161306348323
24180151 40 17975381884384577114
3178227 256 18263643970790810170
392239 28 18339632361129869770
4173938 306 17677315170685054069
4340502 62 18410296895478878517
5104073 3 18335409201714286930
57527573 199 18059007419083959072
653340 110 18194117653761103546
9658208 31 18338528529340189030
9777508 108 18265616678590705402

> <PUBCHEM_SHAPE_MULTIPOLES>
608.62
14.26
5.41
1.79
14.92
5.21
0.23
-19.37
8.61
-3.74
1.65
0.09
-1.03
1.02

> <PUBCHEM_SHAPE_SELFOVERLAP>
1301.814

> <PUBCHEM_SHAPE_VOLUME>
338.2

> <PUBCHEM_COORDINATE_TYPE>
2
5
10

$$$$
122363513
  SciTegic09112316443D

 48 49  0  0  0  0            999 V2000
   -2.1434    0.8179    1.8630 O   0  0
   -0.2071   -2.6744   -0.7850 O   0  0
   -4.7196   -1.3713   -1.5245 O   0  0
    0.1451   -0.9169    2.5085 O   0  0
    7.3144    1.2020   -1.4082 O   0  0
   -4.6292    0.6110    0.5201 C   0  0
   -3.4466   -0.2614    0.1777 C   0  0
   -4.8757    1.7341   -0.4968 C   0  0
   -2.2461   -0.1154    0.8726 C   0  0
   -1.1536   -0.9224    0.5544 C   0  0
   -3.5549   -1.2143   -0.8352 C   0  0
   -1.2617   -1.8752   -0.4585 C   0  0
   -3.7602    2.7515   -0.5805 C   0  0
   -2.4624   -2.0211   -1.1532 C   0  0
    0.1028   -0.7713    1.2796 C   0  0
   -3.8240    3.9165    0.3646 C   0  0
    1.3356   -0.4038    0.5062 C   0  0
   -2.7730    2.6363   -1.4824 C   0  0
    2.5063   -0.2267    1.1362 C   0  0
    3.7655    0.1490    0.4694 C   0  0
   -0.0949   -3.9143   -0.0892 C   0  0
    3.9164   -0.0553   -0.9022 C   0  0
    4.8072    0.7077    1.2100 C   0  0
    5.1087    0.2988   -1.5332 C   0  0
    5.9997    1.0618    0.5791 C   0  0
    6.1505    0.8573   -0.7924 C   0  0
   -5.5257   -0.0208    0.5772 H   0  0
   -4.5293    1.0374    1.5257 H   0  0
   -5.0522    1.3046   -1.4916 H   0  0
   -5.8088    2.2506   -0.2377 H   0  0
   -2.5397   -2.7653   -1.9422 H   0  0
   -4.7453    4.4857    0.2044 H   0  0
   -2.9807    4.6025    0.2326 H   0  0
   -3.8077    3.5654    1.4013 H   0  0
   -1.2511    0.8213    2.2442 H   0  0
    1.2101   -0.2566   -0.5603 H   0  0
   -2.7358    1.8028   -2.1759 H   0  0
   -1.9794    3.3730   -1.5490 H   0  0
   -4.6051   -2.0747   -2.1863 H   0  0
    2.5729   -0.3517    2.2143 H   0  0
    0.8117   -4.4190   -0.4340 H   0  0
   -0.9559   -4.5538   -0.3078 H   0  0
   -0.0142   -3.7503    0.9899 H   0  0
    3.1411   -0.5059   -1.5149 H   0  0
    4.7069    0.8751    2.2796 H   0  0
    5.2227    0.1331   -2.6011 H   0  0
    6.8038    1.4962    1.1671 H   0  0
    7.9232    1.5725   -0.7463 H   0  0
  1  9  1  0
  1 35  1  0
  2 12  1  0
  2 21  1  0
  3 11  1  0
  3 39  1  0
  4 15  2  0
  5 26  1  0
  5 48  1  0
  6  7  1  0
  6  8  1  0
  6 27  1  0
  6 28  1  0
  7  9  1  0
  7 11  2  0
  8 13  1  0
  8 29  1  0
  8 30  1  0
  9 10  2  0
 10 12  1  0
 10 15  1  0
 11 14  1  0
 12 14  2  0
 13 16  1  0
 13 18  2  0
 14 31  1  0
 15 17  1  0
 16 32  1  0
 16 33  1  0
 16 34  1  0
 17 19  2  0
 17 36  1  0
 18 37  1  0
 18 38  1  0
 19 20  1  0
 19 40  1  0
 20 22  2  0
 20 23  1  0
 21 41  1  0
 21 42  1  0
 21 43  1  0
 22 24  1  0
 22 44  1  0
 23 25  2  0
 23 45  1  0
 24 26  2  0
 24 46  1  0
 25 26  1  0
 25 47  1  0
M  END
> <Name>
122363513

> <OBJECTID>
9223372784182427662

> <PUBCHEM_COMPOUND_CID>
122363513

> <PUBCHEM_CONFORMER_RMSD>
0.8

> <PUBCHEM_CONFORMER_DIVERSEORDER>
1
38
98
37
89
35
94
67
80
84
105
70
45
87
71
76
100
99
11
57
79
107
20
30
13
74
104
102
91
48
101
109
103
59
106
14
68
62
42
46
82
56
51
16
2
108
41
50
86
97
69
92
60
22
78
83
81
44
34
54
110
15
36
93
64
88
32
75
23
4
10
90
31
73
33
85
47
18
43
49
95
8
5
19
55
24
66
27
96
7
65
29
72
17
21
6
39
58
77
9
52
53
40
63
26
12
3
25
28
61

> <PUBCHEM_MMFF94_PARTIAL_CHARGES>
38
1 -0.53
10 0.09
11 0.08
12 0.08
13 -0.28
14 -0.15
15 0.47
16 0.14
17 -0.14
18 -0.3
19 -0.18
2 -0.36
20 0.03
21 0.28
22 -0.15
23 -0.15
24 -0.15
25 -0.15
26 0.08
3 -0.53
31 0.15
35 0.45
36 0.15
37 0.15
38 0.15
39 0.45
4 -0.57
40 0.15
44 0.15
45 0.15
46 0.15
47 0.15
48 0.45
5 -0.53
6 0.14
7 -0.14
8 0.14
9 0.08

> <PUBCHEM_EFFECTIVE_ROTOR_COUNT>
7

> <PUBCHEM_PHARMACOPHORE_FEATURES>
7
1 1 donor
1 2 acceptor
1 3 donor
1 4 acceptor
1 5 donor
6 20 22 23 24 25 26 rings
6 7 9 10 11 12 14 rings

> <PUBCHEM_HEAVY_ATOM_COUNT>
26

> <PUBCHEM_ATOM_DEF_STEREO_COUNT>
0

> <PUBCHEM_ATOM_UDEF_STEREO_COUNT>
0

> <PUBCHEM_BOND_DEF_STEREO_COUNT>
1

> <PUBCHEM_BOND_UDEF_STEREO_COUNT>
0

> <PUBCHEM_ISOTOPIC_ATOM_COUNT>
0

> <PUBCHEM_COMPONENT_COUNT>
1

> <PUBCHEM_CACTVS_TAUTO_COUNT>
419

> <PUBCHEM_CONFORMER_ID>
074B1E7900000001

> <PUBCHEM_MMFF94_ENERGY>
84.3575

> <PUBCHEM_FEATURE_SELFOVERLAP>
35.522

> <PUBCHEM_SHAPE_FINGERPRINT>
10 15 12829487087004063564
10165383 225 18059582365233524145
105312 117 18342173349676248126
10577160 183 18340205177636448498
10670039 82 18409726270503341060
107951 10 18342461468994720454
10871710 139 18334007281613155701
11315181 36 16916799526134571402
11578080 2 18127702530633135533
12596602 18 16153428337490410385
12633257 1 15502669195046197710
14251757 5 18340491170216855060
14341114 176 13695861537628052090
14713325 29 18408609188528802155
14844126 61 10665232566238788417
15163728 17 18265619792557747327
15183329 4 17775291538869742962
15188451 53 9439399103771721240
15463212 79 18337098042641932563
15575132 122 18333725802220158653
17980427 23 17676494929745179485
19958102 18 18201995543031531078
200 152 14548747226530887234
20101258 96 18120939666396871587
21033650 10 18411985767151563616
21756936 100 17967818270965921018
22122407 14 17458641037587451004
22393880 68 17989483052601692786
23198884 109 18410294752649134470
23559900 14 17060053796278857530
255183 451 17480285104822776087
2838139 119 18334853922751641616
312425 54 7853309643484776540
4015057 19 16271642399286533242
445580 204 18186522120737373932
46194498 28 17701810206017570632
5104073 3 12468895595428094044
5283173 99 18273212010937791624
53794403 172 17256242640862760517
57527293 21 18191867813528003089
57527585 21 17980455907909902149
59755656 520 17203063910665343155
633830 44 17750231426541448050
6608658 132 18260258664039558237
7237137 82 18273206517600416039
7808743 9 18338790114207475889

> <PUBCHEM_SHAPE_MULTIPOLES>
505.72
14.37
3.46
1.66
22.47
0.13
0.3
10.48
-4.71
-5.01
-0.88
0.53
-0.01
-0.73

> <PUBCHEM_SHAPE_SELFOVERLAP>
1074.107

> <PUBCHEM_SHAPE_VOLUME>
282.1

> <PUBCHEM_COORDINATE_TYPE>
2
5
10

$$$$
122363514
  SciTegic09112316443D

 54 55  0  0  0  0            999 V2000
    5.6981   -2.2347    0.8674 O   0  0
    0.5497   -0.8916   -0.7029 O   0  0
    4.0087    1.6632    1.3979 O   0  0
    0.0300    3.8266   -0.0503 O   0  0
   -1.3017    2.0743   -2.0236 O   0  0
   -7.5312   -2.6441    1.1639 O   0  0
    5.1391   -2.1953   -0.4474 C   0  0
    4.2347   -0.9508   -0.5536 C   0  0
    3.1163   -0.8880    0.4964 C   0  0
    6.2849   -2.1726   -1.4613 C   0  0
    4.2965   -3.4608   -0.6388 C   0  0
    2.2882    0.3645    0.3476 C   0  0
    1.0301    0.3035   -0.2517 C   0  0
    2.7822    1.5843    0.8097 C   0  0
    0.2661    1.4624   -0.3889 C   0  0
    2.0181    2.7432    0.6724 C   0  0
    0.7601    2.6824    0.0731 C   0  0
    6.4960   -1.0898    1.1209 C   0  0
   -1.0494    1.4009   -1.0155 C   0  0
   -2.0992    0.5279   -0.3918 C   0  0
   -0.8462    4.1545    1.0261 C   0  0
   -3.3310    0.4633   -0.9182 C   0  0
   -4.4316   -0.3498   -0.3715 C   0  0
   -4.1527   -1.4175    0.4818 C   0  0
   -5.7523   -0.0529   -0.7084 C   0  0
   -5.1943   -2.1883    0.9979 C   0  0
   -6.7939   -0.8236   -0.1924 C   0  0
   -6.5149   -1.8913    0.6607 C   0  0
    3.7669   -0.9560   -1.5493 H   0  0
    4.8233   -0.0267   -0.5460 H   0  0
    3.5475   -0.8915    1.5060 H   0  0
    2.4884   -1.7826    0.4766 H   0  0
    6.7643   -1.1909   -1.5358 H   0  0
    5.9155   -2.4059   -2.4666 H   0  0
    7.0603   -2.9032   -1.2048 H   0  0
    3.6093   -3.6282    0.1967 H   0  0
    4.9436   -4.3461   -0.6627 H   0  0
    3.7262   -3.4346   -1.5730 H   0  0
    2.3976    3.6974    1.0298 H   0  0
    6.9071   -1.2200    2.1285 H   0  0
    5.9312   -0.1584    1.1583 H   0  0
    7.3625   -1.0067    0.4614 H   0  0
    1.2829   -1.4289   -1.0444 H   0  0
    4.1813    2.5861    1.6514 H   0  0
   -1.8137   -0.0001    0.5108 H   0  0
   -1.5800    3.3593    1.1892 H   0  0
   -0.2749    4.3306    1.9430 H   0  0
   -1.3795    5.0728    0.7654 H   0  0
   -3.5789    1.0412   -1.8052 H   0  0
   -3.1399   -1.6985    0.7549 H   0  0
   -5.9882    0.7762   -1.3712 H   0  0
   -4.9712   -3.0218    1.6584 H   0  0
   -7.8184   -0.5821   -0.4624 H   0  0
   -8.3758   -2.2986    0.8271 H   0  0
  1  7  1  0
  1 18  1  0
  2 13  1  0
  2 43  1  0
  3 14  1  0
  3 44  1  0
  4 17  1  0
  4 21  1  0
  5 19  2  0
  6 28  1  0
  6 54  1  0
  7  8  1  0
  7 10  1  0
  7 11  1  0
  8  9  1  0
  8 29  1  0
  8 30  1  0
  9 12  1  0
  9 31  1  0
  9 32  1  0
 10 33  1  0
 10 34  1  0
 10 35  1  0
 11 36  1  0
 11 37  1  0
 11 38  1  0
 12 13  1  0
 12 14  2  0
 13 15  2  0
 14 16  1  0
 15 17  1  0
 15 19  1  0
 16 17  2  0
 16 39  1  0
 18 40  1  0
 18 41  1  0
 18 42  1  0
 19 20  1  0
 20 22  2  0
 20 45  1  0
 21 46  1  0
 21 47  1  0
 21 48  1  0
 22 23  1  0
 22 49  1  0
 23 24  2  0
 23 25  1  0
 24 26  1  0
 24 50  1  0
 25 27  2  0
 25 51  1  0
 26 28  2  0
 26 52  1  0
 27 28  1  0
 27 53  1  0
M  END
> <Name>
122363514

> <OBJECTID>
9223372788477394958

> <PUBCHEM_COMPOUND_CID>
122363514

> <PUBCHEM_CONFORMER_RMSD>
1

> <PUBCHEM_CONFORMER_DIVERSEORDER>
5
24
64
17
14
45
83
61
50
49
71
53
12
69
74
65
48
22
16
41
32
34
47
57
21
37
20
7
46
59
39
77
15
44
29
72
31
75
4
51
78
36
11
6
54
55
79
26
76
56
52
42
23
68
66
19
18
10
43
9
38
25
62
82
33
8
13
60
30
40
58
81
80
28
3
67
1
73
27
2
35
63
70

> <PUBCHEM_MMFF94_PARTIAL_CHARGES>
35
1 -0.56
12 -0.14
13 0.08
14 0.08
15 0.09
16 -0.15
17 0.08
18 0.28
19 0.47
2 -0.53
20 -0.14
21 0.28
22 -0.18
23 0.03
24 -0.15
25 -0.15
26 -0.15
27 -0.15
28 0.08
3 -0.53
39 0.15
4 -0.36
43 0.45
44 0.45
45 0.15
49 0.15
5 -0.57
50 0.15
51 0.15
52 0.15
53 0.15
54 0.45
6 -0.53
7 0.28
9 0.14

> <PUBCHEM_EFFECTIVE_ROTOR_COUNT>
8

> <PUBCHEM_PHARMACOPHORE_FEATURES>
9
1 1 acceptor
1 2 donor
1 3 donor
1 4 acceptor
1 5 acceptor
1 6 donor
3 7 10 11 hydrophobe
6 12 13 14 15 16 17 rings
6 23 24 25 26 27 28 rings

> <PUBCHEM_HEAVY_ATOM_COUNT>
28

> <PUBCHEM_ATOM_DEF_STEREO_COUNT>
0

> <PUBCHEM_ATOM_UDEF_STEREO_COUNT>
0

> <PUBCHEM_BOND_DEF_STEREO_COUNT>
1

> <PUBCHEM_BOND_UDEF_STEREO_COUNT>
0

> <PUBCHEM_ISOTOPIC_ATOM_COUNT>
0

> <PUBCHEM_COMPONENT_COUNT>
1

> <PUBCHEM_CACTVS_TAUTO_COUNT>
292

> <PUBCHEM_CONFORMER_ID>
074B1E7A00000005

> <PUBCHEM_MMFF94_ENERGY>
107.844

> <PUBCHEM_FEATURE_SELFOVERLAP>
45.673

> <PUBCHEM_SHAPE_FINGERPRINT>
10076449 9 18339654390750691806
10669705 162 18268984303066855543
10981352 41 18339355374785048899
11135609 12 18335691767765463360
11456790 92 18272382971429477065
117089 54 17982739571722271246
12035758 1 18130494289424956338
12107183 9 18270974436483098041
12422481 6 17060338466252365348
12516196 113 18411138021753223567
12623949 98 18412270561716234830
13402501 40 18335140877727372335
13533116 47 18202283649273728947
13540713 4 18264467564491798804
13631057 29 18189055309507007010
13673619 4 18113902671756541231
13685833 64 18410855455881024546
13782708 43 18334852801322156671
13911852 28 18341328925036389847
14068700 675 17967817119872546220
14251764 30 18408324384651373335
14341114 176 18341896337745596665
14556957 393 14201672014331078159
14866123 147 18052822438480609625
15475509 84 17561085782673650601
15927050 60 17909550902266795654
17909252 39 18411136888388175626
20165401 70 18268431425076480615
20554085 129 11963677780771796964
21033650 10 16515960359952787197
21049683 271 18409733980772049300
21130935 74 18121508110373340667
21682296 61 18335423500314568547
21716022 299 18115325469378006340
23559900 14 18041839640580335797
2747138 104 18271522014627195210
2838139 119 9439111031746180370
3004659 81 17240202157766107423
3089732 80 18408606945991598375
329604 57 18335422323181942582
3421961 26 18413387665582724176
437815 12 18409167706054452495
465052 167 18342742918316983302
5104073 3 18202567272082715281
5309563 4 18340769256158687031
56633871 153 18272365412796536015
636775 8 18339648816231866638
6697151 62 18268123462771964573
7918774 8 18340494369830600646
7970288 3 18411419479692671743
8863177 126 18335421313485248339

> <PUBCHEM_SHAPE_MULTIPOLES>
541.01
17.81
4.38
1.26
12.67
2.74
0.14
-22.15
-2.95
-1.9
-0.75
-0.25
0.04
2.76

> <PUBCHEM_SHAPE_SELFOVERLAP>
1143.578

> <PUBCHEM_SHAPE_VOLUME>
304.2

> <PUBCHEM_COORDINATE_TYPE>
2
5
10

$$$$
122363515
  SciTegic09112316443D

 54 56  0  0  1  0            999 V2000
   -0.0869    0.3288   -0.3812 O   0  0
   -1.6703   -3.5611   -0.5584 O   0  0
    4.3678    2.2029    0.1129 O   0  0
    3.7694   -2.4384   -0.6297 O   0  0
    2.2221    3.6790    0.1415 O   0  0
   -6.2318    1.5653   -0.2651 O   0  0
   -0.6607   -3.9132    0.3899 C   0  0
    0.2883   -2.7095    0.5587 C   0  0
    0.9455   -2.2160   -0.7438 C   0  0
    1.8305   -1.0330   -0.5097 C   0  0
    1.2798    0.2361   -0.3269 C   0  0
   -0.5986    1.4697    0.3251 C   0  0  1  0  0  0
    2.1196    1.3361   -0.1299 C   0  0
    0.0307    2.7618   -0.1921 C   0  0
   -1.3434   -4.3069    1.7017 C   0  0
    0.1181   -5.1069   -0.1729 C   0  0
    1.5254    2.6842   -0.0201 C   0  0
    3.2143   -1.2046   -0.4632 C   0  0
    3.5055    1.1663   -0.0812 C   0  0
   -2.1043    1.4948    0.1677 C   0  0
    4.0491   -0.1083   -0.2445 C   0  0
   -2.6703    1.6539   -1.0972 C   0  0
   -2.9256    1.3594    1.2871 C   0  0
   -2.4378   -2.4577   -0.1058 C   0  0
   -4.0574    1.6772   -1.2427 C   0  0
   -4.3125    1.3827    1.1417 C   0  0
   -4.8784    1.5416   -0.1233 C   0  0
    4.7118    2.5156    1.4614 C   0  0
    1.0915   -3.0069    1.2494 H   0  0
   -0.2062   -1.8812    1.0781 H   0  0
    0.1806   -1.9493   -1.4839 H   0  0
    1.5134   -3.0249   -1.2144 H   0  0
   -0.3540    1.3391    1.3897 H   0  0
   -0.3469    3.6222    0.3718 H   0  0
   -0.1570    2.9267   -1.2590 H   0  0
   -2.1975   -4.9702    1.5244 H   0  0
   -0.6397   -4.8259    2.3628 H   0  0
   -1.7062   -3.4412    2.2657 H   0  0
    0.4406   -4.9365   -1.2050 H   0  0
    0.9917   -5.3506    0.4404 H   0  0
   -0.5256   -5.9941   -0.2128 H   0  0
    5.1281   -0.2407   -0.2090 H   0  0
   -2.0484    1.7487   -1.9829 H   0  0
   -2.4997    1.2339    2.2789 H   0  0
   -3.1943   -2.2718   -0.8767 H   0  0
   -1.8705   -1.5326   -0.0288 H   0  0
   -2.9974   -2.6620    0.8096 H   0  0
    4.7369   -2.3633   -0.5654 H   0  0
   -4.4860    1.7989   -2.2339 H   0  0
   -4.9470    1.2763    2.0173 H   0  0
    5.2482    3.4684    1.4663 H   0  0
    5.3702    1.7414    1.8677 H   0  0
    3.8205    2.6112    2.0899 H   0  0
   -6.4480    1.6828   -1.2062 H   0  0
  1 11  1  0
  1 12  1  0
  2  7  1  0
  2 24  1  0
  3 19  1  0
  3 28  1  0
  4 18  1  0
  4 48  1  0
  5 17  2  0
  6 27  1  0
  6 54  1  0
  7  8  1  0
  7 15  1  0
  7 16  1  0
  8  9  1  0
  8 29  1  0
  8 30  1  0
  9 10  1  0
  9 31  1  0
  9 32  1  0
 10 11  1  0
 10 18  2  0
 11 13  2  0
 12 14  1  0
 12 20  1  0
 12 33  1  0
 13 17  1  0
 13 19  1  0
 14 17  1  0
 14 34  1  0
 14 35  1  0
 15 36  1  0
 15 37  1  0
 15 38  1  0
 16 39  1  0
 16 40  1  0
 16 41  1  0
 18 21  1  0
 19 21  2  0
 20 22  2  0
 20 23  1  0
 21 42  1  0
 22 25  1  0
 22 43  1  0
 23 26  2  0
 23 44  1  0
 24 45  1  0
 24 46  1  0
 24 47  1  0
 25 27  2  0
 25 49  1  0
 26 27  1  0
 26 50  1  0
 28 51  1  0
 28 52  1  0
 28 53  1  0
M  END
> <Name>
122363515

> <OBJECTID>
9223372792772362254

> <PUBCHEM_COMPOUND_CID>
122363515

> <PUBCHEM_CONFORMER_RMSD>
0.8

> <PUBCHEM_CONFORMER_DIVERSEORDER>
1
65
27
46
57
44
54
34
25
66
60
32
21
9
37
38
58
16
36
56
51
18
30
24
59
55
28
8
68
61
52
5
31
12
42
48
62
63
35
10
50
13
20
49
11
19
39
23
53
4
7
26
47
17
45
40
67
14
3
41
29
22
15
43
64
6
33
2

> <PUBCHEM_MMFF94_PARTIAL_CHARGES>
32
1 -0.36
10 -0.14
11 0.08
12 0.42
13 0.09
14 0.06
17 0.42
18 0.08
19 0.08
2 -0.56
20 -0.14
21 -0.15
22 -0.15
23 -0.15
24 0.28
25 -0.15
26 -0.15
27 0.08
28 0.28
3 -0.36
4 -0.53
42 0.15
43 0.15
44 0.15
48 0.45
49 0.15
5 -0.57
50 0.15
54 0.45
6 -0.53
7 0.28
9 0.14

> <PUBCHEM_EFFECTIVE_ROTOR_COUNT>
6.6

> <PUBCHEM_PHARMACOPHORE_FEATURES>
10
1 1 acceptor
1 2 acceptor
1 3 acceptor
1 4 donor
1 5 acceptor
1 6 donor
3 7 15 16 hydrophobe
6 1 11 12 13 14 17 rings
6 10 11 13 18 19 21 rings
6 20 22 23 25 26 27 rings

> <PUBCHEM_HEAVY_ATOM_COUNT>
28

> <PUBCHEM_ATOM_DEF_STEREO_COUNT>
0

> <PUBCHEM_ATOM_UDEF_STEREO_COUNT>
1

> <PUBCHEM_BOND_DEF_STEREO_COUNT>
0

> <PUBCHEM_BOND_UDEF_STEREO_COUNT>
0

> <PUBCHEM_ISOTOPIC_ATOM_COUNT>
0

> <PUBCHEM_COMPONENT_COUNT>
1

> <PUBCHEM_CACTVS_TAUTO_COUNT>
18

> <PUBCHEM_CONFORMER_ID>
074B1E7B00000001

> <PUBCHEM_MMFF94_ENERGY>
101.3524

> <PUBCHEM_FEATURE_SELFOVERLAP>
50.788

> <PUBCHEM_SHAPE_FINGERPRINT>
10074138 170 18049690170471309376
10411042 1 17402049990270971079
10688039 33 17540814331562781163
1100329 8 18338514145341973834
114674 6 18193845846628811882
11578080 2 16843871178125775194
12236239 1 17632856404757041685
12422481 6 17974324116165436819
12553582 1 16320627437241775175
12788726 201 17543348710660990768
13140716 1 18412262805237354266
13540713 4 18057051409889238444
1361 2 18409448064508575289
13692114 37 18054773238316855671
138480 1 17689717463555217383
13911987 19 18118428183995878420
14790565 3 18195262030934031060
15483637 11 18266179612187534535
17138139 8 17771593980339762431
19427546 62 18410012173570903709
19591789 44 18266465295551252150
19930381 70 18121220870758564905
20028762 73 18200307697940685959
20511986 3 17630872829924846913
21033648 29 18335970995974021301
21049683 118 18194656319805449217
21197605 99 18341621460092464399
21421861 104 17399529922024300281
21796203 349 17618534002335658947
22182313 1 17986687072231956468
22311459 1 18411983521680570644
23558518 356 17827918752152553456
23559900 14 18343020008738888656
3178227 256 18193290601825620898
3298306 158 18117276952651465847
338550 245 18263087759419101533
350125 39 17763466514778652504
463206 1 16968581781235733981
5309563 4 17762056541101787767
653340 110 18052813942871443024
7399639 24 18188199893555481853
9777508 108 18267582601196737696
9981440 41 16696071591004814768

> <PUBCHEM_SHAPE_MULTIPOLES>
541.01
8.91
6.28
1.1
5.01
8.58
0.28
-8.19
0.28
-0.34
1.09
0.41
0.09
1.42

> <PUBCHEM_SHAPE_SELFOVERLAP>
1163.136

> <PUBCHEM_SHAPE_VOLUME>
298.9

> <PUBCHEM_COORDINATE_TYPE>
2
5
10

$$$$
122363516
  SciTegic09112316443D

 41 42  0  0  0  0            999 V2000
   -0.8775    0.9533   -0.5845 O   0  0
    2.8286    2.4971    0.2900 O   0  0
    3.7767    0.1020    0.5044 O   0  0
    0.7683   -3.4846   -0.3218 O   0  0
    3.2771   -2.5705    0.3326 O   0  0
   -0.7617    2.2957   -0.0818 C   0  0
    0.5874    2.9255   -0.4458 C   0  0
    0.1957    0.1360   -0.3571 C   0  0
    1.4777    0.5952   -0.0525 C   0  0
    1.7307    2.0466   -0.0148 C   0  0
   -1.8788    3.0936   -0.7718 C   0  0
   -1.0249    2.3094    1.4335 C   0  0
   -0.0390   -1.2369   -0.4585 C   0  0
    2.5174   -0.3094    0.1810 C   0  0
   -1.3978   -1.7456   -0.8254 C   0  0
    0.9970   -2.1429   -0.2292 C   0  0
    2.2719   -1.6797    0.0943 C   0  0
   -2.3825   -1.6512    0.3118 C   0  0
   -3.5548   -0.9887    0.3415 C   0  0
   -4.4923   -0.9361    1.5141 C   0  0
   -4.0194   -0.2088   -0.8599 C   0  0
    0.6945    3.9074    0.0287 H   0  0
    0.6826    3.0517   -1.5314 H   0  0
   -1.8702    4.1460   -0.4689 H   0  0
   -1.7767    3.0447   -1.8621 H   0  0
   -2.8634    2.6757   -0.5354 H   0  0
   -0.2737    1.7362    1.9867 H   0  0
   -1.0294    3.3306    1.8289 H   0  0
   -1.9914    1.8450    1.6617 H   0  0
   -1.7253   -1.2436   -1.7398 H   0  0
   -1.3567   -2.8013   -1.1214 H   0  0
   -2.1003   -2.2045    1.2073 H   0  0
    3.8102    1.0653    0.6028 H   0  0
    1.6005   -3.9430   -0.5224 H   0  0
    2.8991   -3.4213    0.6085 H   0  0
   -4.6109    0.0945    1.8635 H   0  0
   -5.4754   -1.3280    1.2342 H   0  0
   -4.1205   -1.5330    2.3534 H   0  0
   -4.8031   -0.7667   -1.3832 H   0  0
   -4.4500    0.7461   -0.5375 H   0  0
   -3.2424    0.0457   -1.5806 H   0  0
  1  6  1  0
  1  8  1  0
  2 10  2  0
  3 14  1  0
  3 33  1  0
  4 16  1  0
  4 34  1  0
  5 17  1  0
  5 35  1  0
  6  7  1  0
  6 11  1  0
  6 12  1  0
  7 10  1  0
  7 22  1  0
  7 23  1  0
  8  9  2  0
  8 13  1  0
  9 10  1  0
  9 14  1  0
 11 24  1  0
 11 25  1  0
 11 26  1  0
 12 27  1  0
 12 28  1  0
 12 29  1  0
 13 15  1  0
 13 16  2  0
 14 17  2  0
 15 18  1  0
 15 30  1  0
 15 31  1  0
 16 17  1  0
 18 19  2  0
 18 32  1  0
 19 20  1  0
 19 21  1  0
 20 36  1  0
 20 37  1  0
 20 38  1  0
 21 39  1  0
 21 40  1  0
 21 41  1  0
M  END
> <Name>
122363516

> <OBJECTID>
9223372797067329550

> <PUBCHEM_COMPOUND_CID>
122363516

> <PUBCHEM_CONFORMER_RMSD>
0.6

> <PUBCHEM_CONFORMER_DIVERSEORDER>
5
15
20
13
18
7
14
17
6
19
2
9
10
4
16
3
1
12
8
11

> <PUBCHEM_MMFF94_PARTIAL_CHARGES>
23
1 -0.36
10 0.42
13 -0.14
14 0.08
15 0.28
16 0.08
17 0.08
18 -0.29
19 -0.28
2 -0.57
20 0.14
21 0.14
3 -0.53
32 0.15
33 0.45
34 0.45
35 0.45
4 -0.53
5 -0.53
6 0.28
7 0.06
8 0.08
9 0.09

> <PUBCHEM_EFFECTIVE_ROTOR_COUNT>
2.6

> <PUBCHEM_PHARMACOPHORE_FEATURES>
9
1 1 acceptor
1 2 acceptor
1 3 donor
1 4 donor
1 5 donor
3 19 20 21 hydrophobe
3 6 11 12 hydrophobe
6 1 6 7 8 9 10 rings
6 8 9 13 14 16 17 rings

> <PUBCHEM_HEAVY_ATOM_COUNT>
21

> <PUBCHEM_ATOM_DEF_STEREO_COUNT>
0

> <PUBCHEM_ATOM_UDEF_STEREO_COUNT>
0

> <PUBCHEM_BOND_DEF_STEREO_COUNT>
0

> <PUBCHEM_BOND_UDEF_STEREO_COUNT>
0

> <PUBCHEM_ISOTOPIC_ATOM_COUNT>
0

> <PUBCHEM_COMPONENT_COUNT>
1

> <PUBCHEM_CACTVS_TAUTO_COUNT>
173

> <PUBCHEM_CONFORMER_ID>
074B1E7C00000005

> <PUBCHEM_MMFF94_ENERGY>
59.5665

> <PUBCHEM_FEATURE_SELFOVERLAP>
45.71

> <PUBCHEM_SHAPE_FINGERPRINT>
10382601 240 18267602353719599139
10411042 1 18266737982951704270
104564 63 18341902844193801685
10493431 412 17763749084301701545
10688039 33 18041286491679006229
10967382 1 18338513174272728438
10980938 120 18193275414968857479
1100329 8 17836090348298069832
11578080 2 17200473456990971409
11640471 11 17488205797377993867
11680986 33 18196082249026835012
12035759 4 18044686236817929132
12553582 1 18410860949218192223
13132413 78 18053103105739646453
13140716 1 18049996990081701098
14178342 30 18196931076662722064
14223421 5 18338515231482980769
14790565 3 17903930198293854901
15042514 8 17760928446614642410
16945 1 18410567401014150358
17357779 13 18339631249081473919
18219364 16 18119806065750420719
193761 8 18338793412515350044
19591789 44 17904766926868406284
20600515 1 17765722703605867724
20739085 24 18263380216305876145
21197605 99 18054236432626548097
21524375 3 17622734536628482007
22182313 1 18199463269295438974
23184049 59 18341901847872249715
2334 1 17979632664808134630
23419403 2 18041819753953418871
23558518 356 18187933802766106897
238 59 17687982747876129703
2748010 2 18125997166170132790
350125 39 18411140238594515344
352729 6 17835796400656573710
394222 165 17171236532223164260
5282274 181 17695376697253522937
54173680 148 17833269722994388758
7832392 63 17908424997843588590
81228 2 18122070793041315307

> <PUBCHEM_SHAPE_MULTIPOLES>
402.82
5.91
4.09
0.99
3.7
1
-0.2
-2.12
-1.52
-1.3
0.3
0.81
0.19
0.26

> <PUBCHEM_SHAPE_SELFOVERLAP>
860.181

> <PUBCHEM_SHAPE_VOLUME>
224.8

> <PUBCHEM_COORDINATE_TYPE>
2
5
10

$$$$
126558484
  SciTegic09112316443D

 66 68  0  0  1  0            999 V2000
    0.1643    0.8110    2.4971 O   0  0
    4.6230    0.9299    0.8271 O   0  0
    0.3367   -2.9156    0.4133 O   0  0
   -3.3842    0.1076    0.1691 O   0  0
   -3.3921   -2.8567    1.0933 O   0  0
    0.8234    0.1453   -0.8428 C   0  0  2  0  0  0
    0.7658   -0.5340    0.5550 C   0  0  1  0  0  0
    2.2892    0.6431   -0.9945 C   0  0
    3.0439   -0.5076   -0.2697 C   0  0  2  0  0  0
    2.2064   -0.7673    0.9939 C   0  0
   -0.3268    1.1759   -0.8763 C   0  0
   -1.1279    0.9677    0.4286 C   0  0  2  0  0  0
   -0.0102    0.5003    1.3304 C   0  0
    4.5129   -0.2677    0.0544 C   0  0
   -0.1196   -1.7759    0.4479 C   0  0
    2.6765    0.7212   -2.4784 C   0  0
    2.5670    2.0175   -0.3536 C   0  0
   -2.0566   -0.2495    0.3186 C   0  0
   -1.7789    2.2494    0.9340 C   0  0
   -1.6110   -1.5318    0.3358 C   0  0
    5.3237   -0.0612   -1.2253 C   0  0
    5.0913   -1.4244    0.8714 C   0  0
   -2.4333    3.0024   -0.1857 C   0  0
   -2.5229   -2.6832    0.2361 C   0  0
   -2.3260   -3.6349   -0.9423 C   0  0
   -2.5559    4.3364   -0.3204 C   0  0
   -2.0030   -5.0333   -0.4262 C   0  0
   -3.5604   -3.6595   -1.8405 C   0  0
   -1.9893    5.2637    0.7216 C   0  0
   -3.2260    5.0313   -1.4716 C   0  0
    0.6319   -0.6062   -1.6238 H   0  0
    2.9726   -1.4147   -0.8906 H   0  0
    2.3641   -1.7858    1.3641 H   0  0
    2.4849   -0.0881    1.8073 H   0  0
    0.0416    2.1990   -0.9645 H   0  0
   -0.9507    1.0016   -1.7626 H   0  0
    1.8816    1.2268   -3.0411 H   0  0
    2.7948   -0.2723   -2.9239 H   0  0
    3.5793    1.3020   -2.6715 H   0  0
    1.9472    2.7958   -0.8103 H   0  0
    2.3637    2.0404    0.7206 H   0  0
    3.5850    2.3720   -0.5410 H   0  0
   -2.5209    2.0298    1.7116 H   0  0
   -1.0081    2.8689    1.4061 H   0  0
    6.3936   -0.1905   -1.0158 H   0  0
    5.2553    0.9600   -1.6055 H   0  0
    5.0677   -0.7845   -2.0054 H   0  0
    6.1627   -1.2749    1.0515 H   0  0
    4.6382   -1.4890    1.8662 H   0  0
    4.9644   -2.3838    0.3594 H   0  0
    5.5641    1.0731    1.0264 H   0  0
   -2.8984    2.3999   -0.9646 H   0  0
   -3.9173   -0.7005    0.0869 H   0  0
   -1.4816   -3.2850   -1.5480 H   0  0
   -2.8436   -5.4525    0.1383 H   0  0
   -1.1367   -5.0256    0.2420 H   0  0
   -1.7829   -5.7120   -1.2569 H   0  0
   -4.4417   -4.0182   -1.2975 H   0  0
   -3.7890   -2.6532   -2.2080 H   0  0
   -3.4024   -4.3114   -2.7058 H   0  0
   -1.0504    5.7001    0.3659 H   0  0
   -1.8100    4.7906    1.6900 H   0  0
   -2.6916    6.0828    0.9148 H   0  0
   -4.0801    5.6187   -1.1197 H   0  0
   -2.5215    5.7019   -1.9741 H   0  0
   -3.5950    4.3167   -2.2147 H   0  0
  1 13  2  0
  2 14  1  0
  2 51  1  0
  3 15  2  0
  4 18  1  0
  4 53  1  0
  5 24  2  0
  6  7  1  0
  6  8  1  0
  6 11  1  0
  6 31  1  0
  7 10  1  0
  7 13  1  0
  7 15  1  0
  8  9  1  0
  8 16  1  0
  8 17  1  0
  9 10  1  0
  9 14  1  0
  9 32  1  0
 10 33  1  0
 10 34  1  0
 11 12  1  0
 11 35  1  0
 11 36  1  0
 12 13  1  0
 12 18  1  0
 12 19  1  0
 14 21  1  0
 14 22  1  0
 15 20  1  0
 16 37  1  0
 16 38  1  0
 16 39  1  0
 17 40  1  0
 17 41  1  0
 17 42  1  0
 18 20  2  0
 19 23  1  0
 19 43  1  0
 19 44  1  0
 20 24  1  0
 21 45  1  0
 21 46  1  0
 21 47  1  0
 22 48  1  0
 22 49  1  0
 22 50  1  0
 23 26  2  0
 23 52  1  0
 24 25  1  0
 25 27  1  0
 25 28  1  0
 25 54  1  0
 26 29  1  0
 26 30  1  0
 27 55  1  0
 27 56  1  0
 27 57  1  0
 28 58  1  0
 28 59  1  0
 28 60  1  0
 29 61  1  0
 29 62  1  0
 29 63  1  0
 30 64  1  0
 30 65  1  0
 30 66  1  0
M  END
> <Name>
126558484

> <OBJECTID>
9223372801362296846

> <PUBCHEM_COMPOUND_CID>
126558484

> <PUBCHEM_CONFORMER_RMSD>
0.8

> <PUBCHEM_CONFORMER_DIVERSEORDER>
6
72
61
16
50
78
69
45
80
47
71
30
12
52
66
51
49
32
76
79
65
60
67
48
28
77
36
57
35
55
59
46
19
24
38
54
63
9
18
56
73
31
42
27
53
74
25
34
8
75
58
68
70
44
43
20
21
62
64
15
39
29
33
2
5
17
37
10
14
23
7
26
13
3
40
41
22
1
4
11

> <PUBCHEM_MMFF94_PARTIAL_CHARGES>
22
1 -0.57
12 0.2
13 0.45
14 0.28
15 0.49
18 -0.06
19 0.14
2 -0.68
20 0.03
23 -0.29
24 0.49
25 0.06
26 -0.28
29 0.14
3 -0.57
30 0.14
4 -0.53
5 -0.57
51 0.4
52 0.15
53 0.45
7 0.12

> <PUBCHEM_EFFECTIVE_ROTOR_COUNT>
5.8

> <PUBCHEM_PHARMACOPHORE_FEATURES>
12
1 1 acceptor
1 2 acceptor
1 2 donor
1 3 acceptor
1 4 donor
1 5 acceptor
3 14 21 22 hydrophobe
3 25 27 28 hydrophobe
3 26 29 30 hydrophobe
3 8 16 17 hydrophobe
5 6 7 8 9 10 rings
8 6 7 11 12 13 15 18 20 rings

> <PUBCHEM_HEAVY_ATOM_COUNT>
30

> <PUBCHEM_ATOM_DEF_STEREO_COUNT>
2

> <PUBCHEM_ATOM_UDEF_STEREO_COUNT>
2

> <PUBCHEM_BOND_DEF_STEREO_COUNT>
0

> <PUBCHEM_BOND_UDEF_STEREO_COUNT>
0

> <PUBCHEM_ISOTOPIC_ATOM_COUNT>
0

> <PUBCHEM_COMPONENT_COUNT>
1

> <PUBCHEM_CACTVS_TAUTO_COUNT>
7

> <PUBCHEM_CONFORMER_ID>
078B211400000006

> <PUBCHEM_MMFF94_ENERGY>
116.9463

> <PUBCHEM_FEATURE_SELFOVERLAP>
60.947

> <PUBCHEM_SHAPE_FINGERPRINT>
11578080 2 18046039804166756892
11582403 64 17126160665693892504
11763715 3 18046932616556732412
12107183 9 17828476978279954394
12160290 23 18196121930266567345
12173636 292 18266458702813655445
12422481 6 17173769441993802032
12553582 1 18052553354094625319
12788726 201 18263102031157693052
13004483 165 18337678632341977883
13009979 54 18188215423977570294
13134695 92 17906166605176184431
13140716 1 18335991977162536187
13540713 5 17967253071161760166
13583140 156 17917422125911593474
13690498 29 18267891495835503686
14294032 229 18339088064826667585
14508225 48 18125712633308459295
14790565 3 17903643986563945332
14955137 171 18046081603516293443
15081414 286 16537642458352883657
15219462 58 17622107621895849138
15420108 30 17903903475264866570
15439362 3 17184752394423396469
15664445 248 17618789501576684456
15775530 1 17986931119903853105
15878777 1 17609732626824728707
16087824 20 18410294706248213963
16945 1 18340783579816252587
17349148 13 17896036727646208986
17980427 26 16401061252440807392
1813 80 17912099544250255319
20600515 1 17914919718755741849
20775438 99 17478563200824922565
21033648 29 18197490723902857176
21304303 282 18195219175512228133
23366157 5 17257094191126727115
23419403 2 17487601159970480337
23559900 14 18202291320855653870
23929065 36 18196345157318920032
24941158 1 17114062000482033159
25222932 49 15967279902717668957
255183 313 18200609029325893251
376196 1 17538002463888048609
38695281 34 17905884777821854764
4017518 198 17695616360814200054
4409770 3 18410288082601554499
463206 1 17974854183264520994
59755656 520 17843140111822650576
7164475 11 18337396057980136126
9981440 41 17978228262369453089

> <PUBCHEM_SHAPE_MULTIPOLES>
588.04
7.88
6.69
1.61
9.96
0.83
0.31
-2.9
1.24
-12.54
1.8
0.28
-0.21
-0.68

> <PUBCHEM_SHAPE_SELFOVERLAP>
1253.82

> <PUBCHEM_SHAPE_VOLUME>
331.7

> <PUBCHEM_COORDINATE_TYPE>
2
5
10

$$$$
132515677
  SciTegic09112316442D

 48 49  0  0  1  0            999 V2000
    7.1962    1.5600    0.0000 S   0  0
    4.5981   -1.9400    0.0000 S   0  0
    6.3301    0.0600    0.0000 O   0  0
    5.4641   -3.4400    0.0000 O   0  0
    7.1962   -3.4400    0.0000 O   0  0
   11.1636    1.0215    0.0000 O   0  0
    8.9282   -0.4400    0.0000 N   0  0
    7.1962   -1.4400    0.0000 N   0  0
    8.0622    0.0600    0.0000 C   0  0  2  0  0  0
    8.0622   -1.9400    0.0000 C   0  0
    8.9282   -1.4400    0.0000 C   0  0
    7.1962   -0.4400    0.0000 C   0  0
    6.3301   -1.9400    0.0000 C   0  0  1  0  0  0
    8.0622    1.0600    0.0000 C   0  0
    9.8744   -0.1353    0.0000 C   0  0
    9.8744   -1.7447    0.0000 C   0  0
   10.4580   -0.9400    0.0000 C   0  0
    5.4641   -1.4400    0.0000 C   0  0
    6.3301   -2.9400    0.0000 C   0  0
   10.1851    0.8153    0.0000 C   0  0
    7.1962    2.5600    0.0000 C   0  0
    3.7320   -1.4400    0.0000 C   0  0
    6.3301    3.0600    0.0000 C   0  0
    2.8660   -1.9400    0.0000 C   0  0
    6.3301    4.0600    0.0000 C   0  0
    2.0000   -1.4400    0.0000 C   0  0
    8.5991    0.3700    0.0000 H   0  0
    7.6636   -2.4150    0.0000 H   0  0
    8.4607   -2.4150    0.0000 H   0  0
    6.8671   -2.2500    0.0000 H   0  0
    8.6728    0.9523    0.0000 H   0  0
    8.2742    1.6426    0.0000 H   0  0
   10.0670   -2.3340    0.0000 H   0  0
   11.0780   -0.9400    0.0000 H   0  0
    5.8626   -0.9651    0.0000 H   0  0
    5.0656   -0.9651    0.0000 H   0  0
    9.7710    1.2767    0.0000 H   0  0
    7.8067    2.4523    0.0000 H   0  0
    7.4082    3.1426    0.0000 H   0  0
    4.1306   -0.9651    0.0000 H   0  0
    3.3335   -0.9651    0.0000 H   0  0
    5.4641   -4.0600    0.0000 H   0  0
    5.7932    2.7500    0.0000 H   0  0
    2.8660   -2.5600    0.0000 H   0  0
    6.8671    4.3700    0.0000 H   0  0
    5.7932    4.3700    0.0000 H   0  0
    2.0000   -0.8200    0.0000 H   0  0
    1.4631   -1.7500    0.0000 H   0  0
  1 14  1  0
  1 21  1  0
  2 18  1  0
  2 22  1  0
  3 12  2  0
  4 19  1  0
  4 42  1  0
  5 19  2  0
  6 20  2  0
  7  9  1  0
  7 11  1  0
  7 15  1  0
  8 10  1  0
  8 12  1  0
  8 13  1  0
  9 12  1  0
  9 14  1  6
  9 27  1  0
 10 11  1  0
 10 28  1  0
 10 29  1  0
 11 16  2  0
 13 18  1  0
 13 19  1  6
 13 30  1  0
 14 31  1  0
 14 32  1  0
 15 17  2  0
 15 20  1  0
 16 17  1  0
 16 33  1  0
 17 34  1  0
 18 35  1  0
 18 36  1  0
 20 37  1  0
 21 23  1  0
 21 38  1  0
 21 39  1  0
 22 24  1  0
 22 40  1  0
 22 41  1  0
 23 25  2  0
 23 43  1  0
 24 26  2  0
 24 44  1  0
 25 45  1  0
 25 46  1  0
 26 47  1  0
 26 48  1  0
M  END
> <Name>
132515677

> <OBJECTID>
9223372805657264142

> <PUBCHEM_COMPOUND_CID>
132515677

> <PUBCHEM_COMPOUND_CANONICALIZED>
1

> <PUBCHEM_CACTVS_COMPLEXITY>
557

> <PUBCHEM_CACTVS_HBOND_ACCEPTOR>
6

> <PUBCHEM_CACTVS_HBOND_DONOR>
1

> <PUBCHEM_CACTVS_ROTATABLE_BOND>
11

> <PUBCHEM_CACTVS_SUBSKEYS>
AAADceB7OABgAAAAAAAAAAAAAAAAAWAAAAAsAAAAAAAAAFgBgAAAHgQACAAACCjl1gawiJMMEgioAS3y3ACCgCAnAjAI2CG4ZNgKYPLglbGUQQhghgD4yYcYCQAQAAAAAAAAAAAAAAAAAAAAAAAAAAAAAA==

> <PUBCHEM_IUPAC_OPENEYE_NAME>
(2R)-3-allylsulfanyl-2-[(4R)-4-(allylsulfanylmethyl)-6-formyl-3-oxo-1,4-dihydropyrrolo[1,2-a]pyrazin-2-yl]propanoic acid

> <PUBCHEM_IUPAC_CAS_NAME>
(2R)-2-[(4R)-6-formyl-3-oxo-4-[(prop-2-enylthio)methyl]-1,4-dihydropyrrolo[1,2-a]pyrazin-2-yl]-3-(prop-2-enylthio)propanoic acid

> <PUBCHEM_IUPAC_NAME_MARKUP>
(2<I>R</I>)-2-[(4<I>R</I>)-6-formyl-3-oxo-4-(prop-2-enylsulfanylmethyl)-1,4-dihydropyrrolo[1,2-a]pyrazin-2-yl]-3-prop-2-enylsulfanylpropanoic acid

> <PUBCHEM_IUPAC_NAME>
(2R)-2-[(4R)-6-formyl-3-oxo-4-(prop-2-enylsulfanylmethyl)-1,4-dihydropyrrolo[1,2-a]pyrazin-2-yl]-3-prop-2-enylsulfanylpropanoic acid

> <PUBCHEM_IUPAC_SYSTEMATIC_NAME>
(2R)-2-[(4R)-6-methanoyl-3-oxidanylidene-4-(prop-2-enylsulfanylmethyl)-1,4-dihydropyrrolo[1,2-a]pyrazin-2-yl]-3-prop-2-enylsulfanyl-propanoic acid

> <PUBCHEM_IUPAC_TRADITIONAL_NAME>
(2R)-3-(allylthio)-2-[(4R)-4-[(allylthio)methyl]-6-formyl-3-keto-1,4-dihydropyrrolo[1,2-a]pyrazin-2-yl]propionic acid

> <PUBCHEM_IUPAC_INCHI>
InChI=1S/C18H22N2O4S2/c1-3-7-25-11-15-17(22)19(16(18(23)24)12-26-8-4-2)9-13-5-6-14(10-21)20(13)15/h3-6,10,15-16H,1-2,7-9,11-12H2,(H,23,24)/t15-,16-/m0/s1

> <PUBCHEM_IUPAC_INCHIKEY>
STHIQVXJUZQGIY-HOTGVXAUSA-N

> <PUBCHEM_XLOGP3_AA>
1.9

> <PUBCHEM_EXACT_MASS>
394.10209953

> <PUBCHEM_MOLECULAR_FORMULA>
C18H22N2O4S2

> <PUBCHEM_MOLECULAR_WEIGHT>
394.5

> <PUBCHEM_OPENEYE_CAN_SMILES>
C=CCSCC1C(=O)N(CC2=CC=C(N12)C=O)C(CSCC=C)C(=O)O

> <PUBCHEM_OPENEYE_ISO_SMILES>
C=CCSC[C@H]1C(=O)N(CC2=CC=C(N12)C=O)[C@@H](CSCC=C)C(=O)O

> <PUBCHEM_CACTVS_TPSA>
130

> <PUBCHEM_MONOISOTOPIC_WEIGHT>
394.10209953

> <PUBCHEM_TOTAL_CHARGE>
0

> <PUBCHEM_HEAVY_ATOM_COUNT>
26

> <PUBCHEM_ATOM_DEF_STEREO_COUNT>
2

> <PUBCHEM_ATOM_UDEF_STEREO_COUNT>
0

> <PUBCHEM_BOND_DEF_STEREO_COUNT>
0

> <PUBCHEM_BOND_UDEF_STEREO_COUNT>
0

> <PUBCHEM_ISOTOPIC_ATOM_COUNT>
0

> <PUBCHEM_COMPONENT_COUNT>
1

> <PUBCHEM_CACTVS_TAUTO_COUNT>
-1

> <PUBCHEM_COORDINATE_TYPE>
1
5
255

> <PUBCHEM_BONDANNOTATIONS>
11  16  8
13  19  6
15  17  8
16  17  8
7  11  8
7  15  8
9  14  6

$$$$
132515678
  SciTegic09112316442D

 30 31  0  0  0  0            999 V2000
    4.6316   -1.1205    0.0000 O   0  0
    3.0989    2.3219    0.0000 O   0  0
    2.2522   -2.3465    0.0000 O   0  0
    8.1054    2.3219    0.0000 O   0  0
    5.6021    1.3740    0.0000 N   0  0
    5.6021    0.3740    0.0000 C   0  0
    4.7931    1.9618    0.0000 C   0  0
    6.4112    1.9618    0.0000 C   0  0
    4.7361   -0.1260    0.0000 C   0  0
    5.1021    2.9129    0.0000 C   0  0
    6.1021    2.9129    0.0000 C   0  0
    3.8421    1.6528    0.0000 C   0  0
    3.8226    0.2808    0.0000 C   0  0
    3.6534   -1.3284    0.0000 C   0  0
    3.1534   -0.4624    0.0000 C   0  0
    7.3622    1.6528    0.0000 C   0  0
    3.2467   -2.2420    0.0000 C   0  0
    5.8142   -0.2086    0.0000 H   0  0
    6.2127    0.4817    0.0000 H   0  0
    4.7377    3.4145    0.0000 H   0  0
    6.4666    3.4145    0.0000 H   0  0
    3.3535    1.2711    0.0000 H   0  0
    4.1331    1.1054    0.0000 H   0  0
    3.6937    0.8872    0.0000 H   0  0
    2.5368   -0.3976    0.0000 H   0  0
    7.4911    1.0463    0.0000 H   0  0
    3.2034   -2.8604    0.0000 H   0  0
    3.8483   -2.3919    0.0000 H   0  0
    2.5093    2.1303    0.0000 H   0  0
    2.0000   -2.9129    0.0000 H   0  0
  1  9  1  0
  1 14  1  0
  2 12  1  0
  2 29  1  0
  3 17  1  0
  3 30  1  0
  4 16  2  0
  5  6  1  0
  5  7  1  0
  5  8  1  0
  6  9  1  0
  6 18  1  0
  6 19  1  0
  7 10  2  0
  7 12  1  0
  8 11  2  0
  8 16  1  0
  9 13  2  0
 10 11  1  0
 10 20  1  0
 11 21  1  0
 12 22  1  0
 12 23  1  0
 13 15  1  0
 13 24  1  0
 14 15  2  0
 14 17  1  0
 15 25  1  0
 16 26  1  0
 17 27  1  0
 17 28  1  0
M  END
> <Name>
132515678

> <OBJECTID>
9223372809952231438

> <PUBCHEM_COMPOUND_CID>
132515678

> <PUBCHEM_COMPOUND_CANONICALIZED>
1

> <PUBCHEM_CACTVS_COMPLEXITY>
261

> <PUBCHEM_CACTVS_HBOND_ACCEPTOR>
4

> <PUBCHEM_CACTVS_HBOND_DONOR>
2

> <PUBCHEM_CACTVS_ROTATABLE_BOND>
5

> <PUBCHEM_CACTVS_SUBSKEYS>
AAADccByOAAAAAAAAAAAAAAAAAAAAWJAAAAAAAAAAAAAAAAB4AAAHgAACAAACAzhlgYwhJMMFkCoAaxyxAaCiCAnIiAI2CH+bNgPNvLEtbuHWSjkwBHb+YeYfQcQAAAAAAAAAAAAAAAAAAAAAAAAAAAAAA==

> <PUBCHEM_IUPAC_OPENEYE_NAME>
5-(hydroxymethyl)-1-[[5-(hydroxymethyl)-2-furyl]methyl]pyrrole-2-carbaldehyde

> <PUBCHEM_IUPAC_CAS_NAME>
5-(hydroxymethyl)-1-[[5-(hydroxymethyl)-2-furanyl]methyl]-2-pyrrolecarboxaldehyde

> <PUBCHEM_IUPAC_NAME_MARKUP>
5-(hydroxymethyl)-1-[[5-(hydroxymethyl)furan-2-yl]methyl]pyrrole-2-carbaldehyde

> <PUBCHEM_IUPAC_NAME>
5-(hydroxymethyl)-1-[[5-(hydroxymethyl)furan-2-yl]methyl]pyrrole-2-carbaldehyde

> <PUBCHEM_IUPAC_SYSTEMATIC_NAME>
5-(hydroxymethyl)-1-[[5-(hydroxymethyl)furan-2-yl]methyl]pyrrole-2-carbaldehyde

> <PUBCHEM_IUPAC_TRADITIONAL_NAME>
5-methylol-1-[(5-methylol-2-furyl)methyl]pyrrole-2-carbaldehyde

> <PUBCHEM_IUPAC_INCHI>
InChI=1S/C12H13NO4/c14-6-9-1-2-10(7-15)13(9)5-11-3-4-12(8-16)17-11/h1-4,6,15-16H,5,7-8H2

> <PUBCHEM_IUPAC_INCHIKEY>
QYTYJLHJBSTGKN-UHFFFAOYSA-N

> <PUBCHEM_XLOGP3_AA>
-0.5

> <PUBCHEM_EXACT_MASS>
235.0844579

> <PUBCHEM_MOLECULAR_FORMULA>
C12H13NO4

> <PUBCHEM_MOLECULAR_WEIGHT>
235.24

> <PUBCHEM_OPENEYE_CAN_SMILES>
C1=C(OC(=C1)CO)CN2C(=CC=C2C=O)CO

> <PUBCHEM_OPENEYE_ISO_SMILES>
C1=C(OC(=C1)CO)CN2C(=CC=C2C=O)CO

> <PUBCHEM_CACTVS_TPSA>
75.6

> <PUBCHEM_MONOISOTOPIC_WEIGHT>
235.0844579

> <PUBCHEM_TOTAL_CHARGE>
0

> <PUBCHEM_HEAVY_ATOM_COUNT>
17

> <PUBCHEM_ATOM_DEF_STEREO_COUNT>
0

> <PUBCHEM_ATOM_UDEF_STEREO_COUNT>
0

> <PUBCHEM_BOND_DEF_STEREO_COUNT>
0

> <PUBCHEM_BOND_UDEF_STEREO_COUNT>
0

> <PUBCHEM_ISOTOPIC_ATOM_COUNT>
0

> <PUBCHEM_COMPONENT_COUNT>
1

> <PUBCHEM_CACTVS_TAUTO_COUNT>
-1

> <PUBCHEM_COORDINATE_TYPE>
1
5
255

> <PUBCHEM_BONDANNOTATIONS>
1  14  8
1  9  8
10  11  8
13  15  8
14  15  8
5  7  8
5  8  8
7  10  8
8  11  8
9  13  8

$$$$
44611569
  SciTegic09112316443D

 24 25  0  0  0  0            999 V2000
    2.9158    0.8286    0.1715 O   0  0
   -0.4915    2.3020   -0.1194 O   0  0
   -4.2717   -0.4872   -0.9222 O   0  0
    0.8499    0.2406    1.3342 C   0  0
   -0.5047    0.0614    0.7324 C   0  0
    1.9874   -0.1355    0.4071 C   0  0
   -1.1165    1.1006    0.0313 C   0  0
   -1.1587   -1.1622    0.8772 C   0  0
    2.3014   -1.2864   -0.2777 C   0  0
   -2.3824    0.9163   -0.5247 C   0  0
   -2.4248   -1.3464    0.3215 C   0  0
   -3.0366   -0.3070   -0.3796 C   0  0
    3.4998   -1.0120   -0.9789 C   0  0
    3.8326    0.2872   -0.6728 C   0  0
    0.9814    1.2738    1.6802 H   0  0
    0.9366   -0.3718    2.2419 H   0  0
   -0.6942   -1.9813    1.4199 H   0  0
    1.7412   -2.2104   -0.2737 H   0  0
   -2.8603    1.7256   -1.0715 H   0  0
   -2.9293   -2.3017    0.4375 H   0  0
    4.0521   -1.6778   -1.6261 H   0  0
    4.6462    0.9377   -0.9586 H   0  0
   -1.0651    2.8968   -0.6321 H   0  0
   -4.5423    0.3326   -1.3703 H   0  0
  1  6  1  0
  1 14  1  0
  2  7  1  0
  2 23  1  0
  3 12  1  0
  3 24  1  0
  4  5  1  0
  4  6  1  0
  4 15  1  0
  4 16  1  0
  5  7  2  0
  5  8  1  0
  6  9  2  0
  7 10  1  0
  8 11  2  0
  8 17  1  0
  9 13  1  0
  9 18  1  0
 10 12  2  0
 10 19  1  0
 11 12  1  0
 11 20  1  0
 13 14  2  0
 13 21  1  0
 14 22  1  0
M  END
> <Name>
44611569

> <OBJECTID>
9223372814247198734

> <PUBCHEM_COMPOUND_CID>
44611569

> <PUBCHEM_CONFORMER_RMSD>
0.6

> <PUBCHEM_CONFORMER_DIVERSEORDER>
1
9
6
12
7
10
4
11
13
8
5
2
3

> <PUBCHEM_MMFF94_PARTIAL_CHARGES>
22
1 -0.28
10 -0.15
11 -0.15
12 0.08
13 -0.15
14 -0.01
17 0.15
18 0.15
19 0.15
2 -0.53
20 0.15
21 0.15
22 0.15
23 0.45
24 0.45
3 -0.53
4 0.32
5 -0.14
6 -0.04
7 0.08
8 -0.15
9 -0.15

> <PUBCHEM_EFFECTIVE_ROTOR_COUNT>
2

> <PUBCHEM_PHARMACOPHORE_FEATURES>
5
1 1 acceptor
1 2 donor
1 3 donor
5 1 6 9 13 14 rings
6 5 7 8 10 11 12 rings

> <PUBCHEM_HEAVY_ATOM_COUNT>
14

> <PUBCHEM_ATOM_DEF_STEREO_COUNT>
0

> <PUBCHEM_ATOM_UDEF_STEREO_COUNT>
0

> <PUBCHEM_BOND_DEF_STEREO_COUNT>
0

> <PUBCHEM_BOND_UDEF_STEREO_COUNT>
0

> <PUBCHEM_ISOTOPIC_ATOM_COUNT>
0

> <PUBCHEM_COMPONENT_COUNT>
1

> <PUBCHEM_CACTVS_TAUTO_COUNT>
9

> <PUBCHEM_CONFORMER_ID>
02A8B7F100000001

> <PUBCHEM_MMFF94_ENERGY>
23.3945

> <PUBCHEM_FEATURE_SELFOVERLAP>
25.372

> <PUBCHEM_SHAPE_FINGERPRINT>
10465860 71 18333731342506177293
11769659 78 16486678273397179751
12251169 10 10087632698213322218
12897270 3 18408890633213375074
13299463 15 18343022155599732770
14911166 2 18261102002885983983
15775835 57 16008748017706910414
16945 1 18259703389102699025
17134986 127 17323511887045666005
17804303 29 10591501515408154176
18186145 218 17821729420546990013
19422 9 15051746295504457290
200 152 17703791401305812814
20201158 50 18341896290094982314
20279233 1 18343017813577765642
20281407 28 17918273160005148603
20361792 2 15985098587803321624
20645476 183 17095239241782809851
20871999 31 18335416859767244805
21501502 16 18195811769192912322
22169311 14 8646767790100214020
22213442 358 18266180719539426011
22445834 79 13182746909384636772
22802520 49 18339367366048272786
228727 97 17894911797847931529
23402539 116 18261946367475564220
23419403 2 10884540180741542843
23557571 272 18042977660193823698
23559900 14 18334855031095537258
27216 239 12181286529023713574
2748010 2 17827349196844898931
353137 74 18113616746655713049
4028521 119 17894629240460113708
465052 167 15266776745393221925
5262128 65 18264510454377400164
7364860 26 18053379087490407569
8030462 33 17822578213807086874
81228 2 18336829697374984257

> <PUBCHEM_SHAPE_MULTIPOLES>
270.51
6.67
1.55
1.04
1.25
0.4
0.11
-1.29
-2.77
-0.31
-0.05
0.07
-0.1
0.37

> <PUBCHEM_SHAPE_SELFOVERLAP>
585.101

> <PUBCHEM_SHAPE_VOLUME>
149.6

> <PUBCHEM_COORDINATE_TYPE>
2
5
10

$$$$
184021992
  SciTegic09112316442D

 20 19  0  0  0  0            999 V2000
    0.0000    0.0000    0.0000 O   0  0
    0.0000    0.0000    0.0000 O   0  0
    0.0000    0.0000    0.0000 C   0  0
    0.0000    0.0000    0.0000 C   0  0
    0.0000    0.0000    0.0000 C   0  0
    0.0000    0.0000    0.0000 C   0  0
    0.0000    0.0000    0.0000 C   0  0
    0.0000    0.0000    0.0000 C   0  0
    0.0000    0.0000    0.0000 C   0  0
    0.0000    0.0000    0.0000 C   0  0
    0.0000    0.0000    0.0000 C   0  0
    0.0000    0.0000    0.0000 C   0  0
    0.0000    0.0000    0.0000 C   0  0
    0.0000    0.0000    0.0000 C   0  0
    0.0000    0.0000    0.0000 C   0  0
    0.0000    0.0000    0.0000 C   0  0
    0.0000    0.0000    0.0000 C   0  0
    0.0000    0.0000    0.0000 C   0  0
    0.0000    0.0000    0.0000 C   0  0
    0.0000    0.0000    0.0000 C   0  0
  1  3  2  0
  2  3  1  0
  3  4  1  0
  4  5  1  0
  5  6  1  0
  6  7  1  0
  7  8  1  0
  8 10  1  0
  9 11  2  3
  9 13  1  0
 10 12  1  0
 11 12  1  0
 13 14  1  0
 14 15  2  3
 15 16  1  0
 16 17  1  0
 17 18  2  3
 18 19  1  0
 19 20  1  0
M  END
> <Name>
184021992

> <OBJECTID>
9223372818542166030

> <PUBCHEM_COMPOUND_ID_TYPE>
0

> <PUBCHEM_TOTAL_CHARGE>
0

> <PUBCHEM_SUBSTANCE_ID>
184021992

> <PUBCHEM_SUBSTANCE_VERSION>
3

> <PUBCHEM_EXT_DATASOURCE_NAME>
4381

> <PUBCHEM_EXT_DATASOURCE_REGID>
alpha-linolenic acid

> <PUBCHEM_SUBSTANCE_COMMENT>
Associated screen ID(s) at http://chemogenomics.pharmacy.ubc.ca/HIPHOP/ (PMID 24723613): SGTC_410

> <PUBCHEM_SUBSTANCE_SYNONYM>
alpha-linolenic acid

> <PUBCHEM_XREF_EXT_ID>
alpha-linolenic acid

> <PUBCHEM_EXT_DATASOURCE_URL>
http://chemogenomics.pharmacy.ubc.ca/HIPHOP/

> <PUBCHEM_CID_ASSOCIATIONS>
860  1

$$$$
289
  SciTegic09112316442D

 14 14  0  0  0  0            999 V2000
    4.2690    1.3450    0.0000 O   0  0
    2.5369    0.3450    0.0000 O   0  0
    4.2690    0.3450    0.0000 C   0  0
    3.4030   -0.1550    0.0000 C   0  0
    5.1350   -0.1550    0.0000 C   0  0
    3.4030   -1.1550    0.0000 C   0  0
    5.1350   -1.1550    0.0000 C   0  0
    4.2690   -1.6550    0.0000 C   0  0
    5.6720    0.1550    0.0000 H   0  0
    2.8660   -1.4650    0.0000 H   0  0
    5.6720   -1.4650    0.0000 H   0  0
    4.2690   -2.2750    0.0000 H   0  0
    4.8059    1.6550    0.0000 H   0  0
    2.0000    0.0350    0.0000 H   0  0
  1  3  1  0
  1 13  1  0
  2  4  1  0
  2 14  1  0
  3  4  1  0
  3  5  2  0
  4  6  2  0
  5  7  1  0
  5  9  1  0
  6  8  1  0
  6 10  1  0
  7  8  2  0
  7 11  1  0
  8 12  1  0
M  END
> <Name>
289

> <OBJECTID>
9223372822837133326

> <PUBCHEM_COMPOUND_CID>
289

> <PUBCHEM_COMPOUND_CANONICALIZED>
1

> <PUBCHEM_CACTVS_COMPLEXITY>
62.9

> <PUBCHEM_CACTVS_HBOND_ACCEPTOR>
2

> <PUBCHEM_CACTVS_HBOND_DONOR>
2

> <PUBCHEM_CACTVS_ROTATABLE_BOND>
0

> <PUBCHEM_CACTVS_SUBSKEYS>
AAADcYBgMAAAAAAAAAAAAAAAAAAAAAAAAAAwAAAAAAAAAAABAAAAGgAACAAACASAkAAwBoAAAgCAACBCAAACAAAgIAAIiAAGiIgJJiKCERKAcAEkwBEJmAeAQAAAAAAAAAAAQAAAAAAAAACAAAAAAAAAAA==

> <PUBCHEM_IUPAC_OPENEYE_NAME>
benzene-1,2-diol

> <PUBCHEM_IUPAC_CAS_NAME>
benzene-1,2-diol

> <PUBCHEM_IUPAC_NAME_MARKUP>
benzene-1,2-diol

> <PUBCHEM_IUPAC_NAME>
benzene-1,2-diol

> <PUBCHEM_IUPAC_SYSTEMATIC_NAME>
benzene-1,2-diol

> <PUBCHEM_IUPAC_TRADITIONAL_NAME>
pyrocatechol

> <PUBCHEM_IUPAC_INCHI>
InChI=1S/C6H6O2/c7-5-3-1-2-4-6(5)8/h1-4,7-8H

> <PUBCHEM_IUPAC_INCHIKEY>
YCIMNLLNPGFGHC-UHFFFAOYSA-N

> <PUBCHEM_XLOGP3>
0.9

> <PUBCHEM_EXACT_MASS>
110.03677943

> <PUBCHEM_MOLECULAR_FORMULA>
C6H6O2

> <PUBCHEM_MOLECULAR_WEIGHT>
110.11

> <PUBCHEM_OPENEYE_CAN_SMILES>
C1=CC=C(C(=C1)O)O

> <PUBCHEM_OPENEYE_ISO_SMILES>
C1=CC=C(C(=C1)O)O

> <PUBCHEM_CACTVS_TPSA>
40.5

> <PUBCHEM_MONOISOTOPIC_WEIGHT>
110.03677943

> <PUBCHEM_TOTAL_CHARGE>
0

> <PUBCHEM_HEAVY_ATOM_COUNT>
8

> <PUBCHEM_ATOM_DEF_STEREO_COUNT>
0

> <PUBCHEM_ATOM_UDEF_STEREO_COUNT>
0

> <PUBCHEM_BOND_DEF_STEREO_COUNT>
0

> <PUBCHEM_BOND_UDEF_STEREO_COUNT>
0

> <PUBCHEM_ISOTOPIC_ATOM_COUNT>
0

> <PUBCHEM_COMPONENT_COUNT>
1

> <PUBCHEM_CACTVS_TAUTO_COUNT>
-1

> <PUBCHEM_COORDINATE_TYPE>
1
5
255

> <PUBCHEM_BONDANNOTATIONS>
3  4  8
3  5  8
4  6  8
5  7  8
6  8  8
7  8  8

$$$$
340
  SciTegic09112316442D

 17 17  0  0  0  0            999 V2000
    4.2690    1.3450    0.0000 O   0  0
    2.5369    0.3450    0.0000 O   0  0
    5.1350   -0.1550    0.0000 C   0  0
    4.2690    0.3450    0.0000 C   0  0
    5.1350   -1.1550    0.0000 C   0  0
    3.4030   -0.1550    0.0000 C   0  0
    6.0010    0.3450    0.0000 C   0  0
    4.2690   -1.6550    0.0000 C   0  0
    3.4030   -1.1550    0.0000 C   0  0
    5.6720   -1.4650    0.0000 H   0  0
    6.3110   -0.1919    0.0000 H   0  0
    6.5380    0.6550    0.0000 H   0  0
    5.6910    0.8819    0.0000 H   0  0
    4.2690   -2.2750    0.0000 H   0  0
    2.8660   -1.4650    0.0000 H   0  0
    4.8059    1.6550    0.0000 H   0  0
    2.0000    0.0350    0.0000 H   0  0
  1  4  1  0
  1 16  1  0
  2  6  1  0
  2 17  1  0
  3  4  2  0
  3  5  1  0
  3  7  1  0
  4  6  1  0
  5  8  2  0
  5 10  1  0
  6  9  2  0
  7 11  1  0
  7 12  1  0
  7 13  1  0
  8  9  1  0
  8 14  1  0
  9 15  1  0
M  END
> <Name>
340

> <OBJECTID>
9223372827132100622

> <PUBCHEM_COMPOUND_CID>
340

> <PUBCHEM_COMPOUND_CANONICALIZED>
1

> <PUBCHEM_CACTVS_COMPLEXITY>
92.9

> <PUBCHEM_CACTVS_HBOND_ACCEPTOR>
2

> <PUBCHEM_CACTVS_HBOND_DONOR>
2

> <PUBCHEM_CACTVS_ROTATABLE_BOND>
0

> <PUBCHEM_CACTVS_SUBSKEYS>
AAADccBgMAAAAAAAAAAAAAAAAAAAAAAAAAAwAAAAAAAAAAABAAAAGgAACAAADASAmAAyBoAAAgCAAiBCAAACAAAgIAAIiAAGiIgJJiKCERKAcAEkwBEJmAeAwDAOAAABAAAIQAAAAAIAABCAAAAAAAAAAA==

> <PUBCHEM_IUPAC_OPENEYE_NAME>
3-methylbenzene-1,2-diol

> <PUBCHEM_IUPAC_CAS_NAME>
3-methylbenzene-1,2-diol

> <PUBCHEM_IUPAC_NAME_MARKUP>
3-methylbenzene-1,2-diol

> <PUBCHEM_IUPAC_NAME>
3-methylbenzene-1,2-diol

> <PUBCHEM_IUPAC_SYSTEMATIC_NAME>
3-methylbenzene-1,2-diol

> <PUBCHEM_IUPAC_TRADITIONAL_NAME>
3-methylpyrocatechol

> <PUBCHEM_IUPAC_INCHI>
InChI=1S/C7H8O2/c1-5-3-2-4-6(8)7(5)9/h2-4,8-9H,1H3

> <PUBCHEM_IUPAC_INCHIKEY>
PGSWEKYNAOWQDF-UHFFFAOYSA-N

> <PUBCHEM_XLOGP3>
1.8

> <PUBCHEM_EXACT_MASS>
124.052429494

> <PUBCHEM_MOLECULAR_FORMULA>
C7H8O2

> <PUBCHEM_MOLECULAR_WEIGHT>
124.14

> <PUBCHEM_OPENEYE_CAN_SMILES>
CC1=C(C(=CC=C1)O)O

> <PUBCHEM_OPENEYE_ISO_SMILES>
CC1=C(C(=CC=C1)O)O

> <PUBCHEM_CACTVS_TPSA>
40.5

> <PUBCHEM_MONOISOTOPIC_WEIGHT>
124.052429494

> <PUBCHEM_TOTAL_CHARGE>
0

> <PUBCHEM_HEAVY_ATOM_COUNT>
9

> <PUBCHEM_ATOM_DEF_STEREO_COUNT>
0

> <PUBCHEM_ATOM_UDEF_STEREO_COUNT>
0

> <PUBCHEM_BOND_DEF_STEREO_COUNT>
0

> <PUBCHEM_BOND_UDEF_STEREO_COUNT>
0

> <PUBCHEM_ISOTOPIC_ATOM_COUNT>
0

> <PUBCHEM_COMPONENT_COUNT>
1

> <PUBCHEM_CACTVS_TAUTO_COUNT>
19

> <PUBCHEM_COORDINATE_TYPE>
1
5
255

> <PUBCHEM_BONDANNOTATIONS>
3  4  8
3  5  8
4  6  8
5  8  8
6  9  8
8  9  8

$$$$
586
  SciTegic09112316442D

 18 17  0  0  0  0            999 V2000
    2.5369    0.0950    0.0000 O   0  0
    3.4030   -1.4050    0.0000 O   0  0
    5.1350   -0.4050    0.0000 N   0  0
    6.8671   -0.4050    0.0000 N   0  0
    6.0010    1.0950    0.0000 N   0  0
    4.2690    0.0950    0.0000 C   0  0
    5.1350   -1.4050    0.0000 C   0  0
    6.0010    0.0950    0.0000 C   0  0
    3.4030   -0.4050    0.0000 C   0  0
    4.6675    0.5699    0.0000 H   0  0
    3.8705    0.5699    0.0000 H   0  0
    4.5150   -1.4050    0.0000 H   0  0
    5.1350   -2.0250    0.0000 H   0  0
    5.7550   -1.4050    0.0000 H   0  0
    7.4040   -0.0950    0.0000 H   0  0
    6.8671   -1.0250    0.0000 H   0  0
    6.5380    1.4050    0.0000 H   0  0
    2.0000   -0.2150    0.0000 H   0  0
  1  9  1  0
  1 18  1  0
  2  9  2  0
  3  6  1  0
  3  7  1  0
  3  8  1  0
  4  8  1  0
  4 15  1  0
  4 16  1  0
  5  8  2  0
  5 17  1  0
  6  9  1  0
  6 10  1  0
  6 11  1  0
  7 12  1  0
  7 13  1  0
  7 14  1  0
M  END
> <Name>
586

> <OBJECTID>
9223372831427067918

> <PUBCHEM_COMPOUND_CID>
586

> <PUBCHEM_COMPOUND_CANONICALIZED>
1

> <PUBCHEM_CACTVS_COMPLEXITY>
134

> <PUBCHEM_CACTVS_HBOND_ACCEPTOR>
3

> <PUBCHEM_CACTVS_HBOND_DONOR>
3

> <PUBCHEM_CACTVS_ROTATABLE_BOND>
3

> <PUBCHEM_CACTVS_SUBSKEYS>
AAADccBjMAAAAAAAAAAAAAAAAAAAAAAAAAAAAAAAAAAAAAAAAAAAHgAQCAAAAADBgAQDCANAAgAoAACQKAAAAACAAAABAACIAACCAAAACCAAAAAAAAIQAAAAAAAAAAAAAAAAAAAAAAAAAAAAAAAAAAAAAA==

> <PUBCHEM_IUPAC_OPENEYE_NAME>
2-[carbamimidoyl(methyl)amino]acetic acid

> <PUBCHEM_IUPAC_CAS_NAME>
2-[carbamimidoyl(methyl)amino]acetic acid

> <PUBCHEM_IUPAC_NAME_MARKUP>
2-[carbamimidoyl(methyl)amino]acetic acid

> <PUBCHEM_IUPAC_NAME>
2-[carbamimidoyl(methyl)amino]acetic acid

> <PUBCHEM_IUPAC_SYSTEMATIC_NAME>
2-[carbamimidoyl(methyl)amino]ethanoic acid

> <PUBCHEM_IUPAC_TRADITIONAL_NAME>
2-[amidino(methyl)amino]acetic acid

> <PUBCHEM_IUPAC_INCHI>
InChI=1S/C4H9N3O2/c1-7(4(5)6)2-3(8)9/h2H2,1H3,(H3,5,6)(H,8,9)

> <PUBCHEM_IUPAC_INCHIKEY>
CVSVTCORWBXHQV-UHFFFAOYSA-N

> <PUBCHEM_XLOGP3_AA>
-1.2

> <PUBCHEM_EXACT_MASS>
131.069476538

> <PUBCHEM_MOLECULAR_FORMULA>
C4H9N3O2

> <PUBCHEM_MOLECULAR_WEIGHT>
131.13

> <PUBCHEM_OPENEYE_CAN_SMILES>
CN(CC(=O)O)C(=N)N

> <PUBCHEM_OPENEYE_ISO_SMILES>
CN(CC(=O)O)C(=N)N

> <PUBCHEM_CACTVS_TPSA>
90.4

> <PUBCHEM_MONOISOTOPIC_WEIGHT>
131.069476538

> <PUBCHEM_TOTAL_CHARGE>
0

> <PUBCHEM_HEAVY_ATOM_COUNT>
9

> <PUBCHEM_ATOM_DEF_STEREO_COUNT>
0

> <PUBCHEM_ATOM_UDEF_STEREO_COUNT>
0

> <PUBCHEM_BOND_DEF_STEREO_COUNT>
0

> <PUBCHEM_BOND_UDEF_STEREO_COUNT>
0

> <PUBCHEM_ISOTOPIC_ATOM_COUNT>
0

> <PUBCHEM_COMPONENT_COUNT>
1

> <PUBCHEM_CACTVS_TAUTO_COUNT>
1

> <PUBCHEM_COORDINATE_TYPE>
1
5
255

$$$$
790
  SciTegic09112316442D

 14 15  0  0  0  0            999 V2000
    2.8660    1.8100    0.0000 O   0  0
    4.6783    0.6147    0.0000 N   0  0
    2.8660   -1.1900    0.0000 N   0  0
    4.6783   -0.9947    0.0000 N   0  0
    2.0000    0.3100    0.0000 N   0  0
    3.7320    0.3100    0.0000 C   0  0
    3.7320   -0.6900    0.0000 C   0  0
    2.8660    0.8100    0.0000 C   0  0
    5.2619   -0.1900    0.0000 C   0  0
    2.0000   -0.6900    0.0000 C   0  0
    4.8709    1.2040    0.0000 H   0  0
    2.8660   -1.8100    0.0000 H   0  0
    5.8819   -0.1900    0.0000 H   0  0
    1.4631   -1.0000    0.0000 H   0  0
  1  8  2  0
  2  6  1  0
  2  9  1  0
  2 11  1  0
  3  7  1  0
  3 10  1  0
  3 12  1  0
  4  7  1  0
  4  9  2  0
  5  8  1  0
  5 10  2  0
  6  7  2  0
  6  8  1  0
  9 13  1  0
 10 14  1  0
M  END
> <Name>
790

> <OBJECTID>
9223372835722035214

> <PUBCHEM_COMPOUND_CID>
790

> <PUBCHEM_COMPOUND_CANONICALIZED>
1

> <PUBCHEM_CACTVS_COMPLEXITY>
190

> <PUBCHEM_CACTVS_HBOND_ACCEPTOR>
2

> <PUBCHEM_CACTVS_HBOND_DONOR>
2

> <PUBCHEM_CACTVS_ROTATABLE_BOND>
0

> <PUBCHEM_CACTVS_SUBSKEYS>
AAADcYBjoAAAAAAAAAAAAAAAAAAAAWAAAAAgAAAAAAAAAEABgAAAHgAQAAAACAgBlgQFsBbJkACoAQdxdACAgC2XEKABUYGoVECASAhASCAUAIAIAAJAAGAAAAAAAAAAAAAAAAAAAAAAAAAAAAAAAAAAAA==

> <PUBCHEM_IUPAC_OPENEYE_NAME>
3,7-dihydropurin-6-one

> <PUBCHEM_IUPAC_CAS_NAME>
3,7-dihydropurin-6-one

> <PUBCHEM_IUPAC_NAME_MARKUP>
3,7-dihydropurin-6-one

> <PUBCHEM_IUPAC_NAME>
3,7-dihydropurin-6-one

> <PUBCHEM_IUPAC_SYSTEMATIC_NAME>
3,7-dihydropurin-6-one

> <PUBCHEM_IUPAC_TRADITIONAL_NAME>
3,7-dihydropurin-6-one

> <PUBCHEM_IUPAC_INCHI>
InChI=1S/C5H4N4O/c10-5-3-4(7-1-6-3)8-2-9-5/h1-2H,(H2,6,7,8,9,10)

> <PUBCHEM_IUPAC_INCHIKEY>
FDGQSTZJBFJUBT-UHFFFAOYSA-N

> <PUBCHEM_XLOGP3>
-1.1

> <PUBCHEM_EXACT_MASS>
136.03851076

> <PUBCHEM_MOLECULAR_FORMULA>
C5H4N4O

> <PUBCHEM_MOLECULAR_WEIGHT>
136.11

> <PUBCHEM_OPENEYE_CAN_SMILES>
C1=NC2=C(N1)C(=O)N=CN2

> <PUBCHEM_OPENEYE_ISO_SMILES>
C1=NC2=C(N1)C(=O)N=CN2

> <PUBCHEM_CACTVS_TPSA>
70.1

> <PUBCHEM_MONOISOTOPIC_WEIGHT>
136.03851076

> <PUBCHEM_TOTAL_CHARGE>
0

> <PUBCHEM_HEAVY_ATOM_COUNT>
10

> <PUBCHEM_ATOM_DEF_STEREO_COUNT>
0

> <PUBCHEM_ATOM_UDEF_STEREO_COUNT>
0

> <PUBCHEM_BOND_DEF_STEREO_COUNT>
0

> <PUBCHEM_BOND_UDEF_STEREO_COUNT>
0

> <PUBCHEM_ISOTOPIC_ATOM_COUNT>
0

> <PUBCHEM_COMPONENT_COUNT>
1

> <PUBCHEM_CACTVS_TAUTO_COUNT>
-1

> <PUBCHEM_COORDINATE_TYPE>
1
5
255

> <PUBCHEM_BONDANNOTATIONS>
2  6  8
2  9  8
3  10  8
3  7  8
4  7  8
4  9  8
5  10  8
5  8  8
6  7  8
6  8  8

$$$$
795
  SciTegic09112316442D

  9  9  0  0  0  0            999 V2000
    2.8090   -0.4594    0.0000 N   0  0
    3.3090    1.0794    0.0000 N   0  0
    2.0000    0.1284    0.0000 C   0  0
    3.6180    0.1284    0.0000 C   0  0
    2.3090    1.0794    0.0000 C   0  0
    2.8090   -1.0794    0.0000 H   0  0
    1.4103   -0.0632    0.0000 H   0  0
    4.2077   -0.0632    0.0000 H   0  0
    1.9446    1.5810    0.0000 H   0  0
  1  3  1  0
  1  4  1  0
  1  6  1  0
  2  4  2  0
  2  5  1  0
  3  5  2  0
  3  7  1  0
  4  8  1  0
  5  9  1  0
M  END
> <Name>
795

> <OBJECTID>
9223372840017002510

> <PUBCHEM_COMPOUND_CID>
795

> <PUBCHEM_COMPOUND_CANONICALIZED>
1

> <PUBCHEM_CACTVS_COMPLEXITY>
28.1

> <PUBCHEM_CACTVS_HBOND_ACCEPTOR>
1

> <PUBCHEM_CACTVS_HBOND_DONOR>
1

> <PUBCHEM_CACTVS_ROTATABLE_BOND>
0

> <PUBCHEM_CACTVS_SUBSKEYS>
AAADcYBDAAAAAAAAAAAAAAAAAAAAAWAAAAAAAAAAAAAAAAABgAAAHAAQAAAAAADBAgQtkBbJkACgABAnZAAAgC2REqAJQYAYMACASAAACAAQAAAIEAIAACAAAAAAAAAAAAAAAAAAAAAAAAAAAAAAAAAAAA==

> <PUBCHEM_IUPAC_OPENEYE_NAME>
imidazole

> <PUBCHEM_IUPAC_CAS_NAME>
1H-imidazole

> <PUBCHEM_IUPAC_NAME_MARKUP>
1<I>H</I>-imidazole

> <PUBCHEM_IUPAC_NAME>
1H-imidazole

> <PUBCHEM_IUPAC_SYSTEMATIC_NAME>
1H-imidazole

> <PUBCHEM_IUPAC_TRADITIONAL_NAME>
glyoxaline

> <PUBCHEM_IUPAC_INCHI>
InChI=1S/C3H4N2/c1-2-5-3-4-1/h1-3H,(H,4,5)

> <PUBCHEM_IUPAC_INCHIKEY>
RAXXELZNTBOGNW-UHFFFAOYSA-N

> <PUBCHEM_XLOGP3>
-0.1

> <PUBCHEM_EXACT_MASS>
68.037448136

> <PUBCHEM_MOLECULAR_FORMULA>
C3H4N2

> <PUBCHEM_MOLECULAR_WEIGHT>
68.08

> <PUBCHEM_OPENEYE_CAN_SMILES>
C1=CN=CN1

> <PUBCHEM_OPENEYE_ISO_SMILES>
C1=CN=CN1

> <PUBCHEM_CACTVS_TPSA>
28.7

> <PUBCHEM_MONOISOTOPIC_WEIGHT>
68.037448136

> <PUBCHEM_TOTAL_CHARGE>
0

> <PUBCHEM_HEAVY_ATOM_COUNT>
5

> <PUBCHEM_ATOM_DEF_STEREO_COUNT>
0

> <PUBCHEM_ATOM_UDEF_STEREO_COUNT>
0

> <PUBCHEM_BOND_DEF_STEREO_COUNT>
0

> <PUBCHEM_BOND_UDEF_STEREO_COUNT>
0

> <PUBCHEM_ISOTOPIC_ATOM_COUNT>
0

> <PUBCHEM_COMPONENT_COUNT>
1

> <PUBCHEM_CACTVS_TAUTO_COUNT>
-1

> <PUBCHEM_COORDINATE_TYPE>
1
5
255

> <PUBCHEM_BONDANNOTATIONS>
1  3  8
1  4  8
2  4  8
2  5  8
3  5  8

$$$$
1048
  SciTegic09112316442D

  9  9  0  0  0  0            999 V2000
    2.8090   -0.4594    0.0000 N   0  0
    3.6180    0.1284    0.0000 N   0  0
    2.0000    0.1284    0.0000 C   0  0
    2.3090    1.0794    0.0000 C   0  0
    3.3090    1.0794    0.0000 C   0  0
    1.4103   -0.0632    0.0000 H   0  0
    1.9446    1.5810    0.0000 H   0  0
    2.8090   -1.0794    0.0000 H   0  0
    3.6734    1.5810    0.0000 H   0  0
  1  2  1  0
  1  3  1  0
  1  8  1  0
  2  5  2  0
  3  4  2  0
  3  6  1  0
  4  5  1  0
  4  7  1  0
  5  9  1  0
M  END
> <Name>
1048

> <OBJECTID>
9223372844311969806

> <PUBCHEM_COMPOUND_CID>
1048

> <PUBCHEM_COMPOUND_CANONICALIZED>
1

> <PUBCHEM_CACTVS_COMPLEXITY>
28.1

> <PUBCHEM_CACTVS_HBOND_ACCEPTOR>
1

> <PUBCHEM_CACTVS_HBOND_DONOR>
1

> <PUBCHEM_CACTVS_ROTATABLE_BOND>
0

> <PUBCHEM_CACTVS_SUBSKEYS>
AAADcYBDAAAAAAAAAAAAAAAAAAAAAWAAAAAAAAAAAAAAAAABgAAAHAAYAAAACADBEgQ8gJBjAACiADBnQACQBAAAggAYMaAwZBAAAIAAQUAAhAAAGAAAAAAAAAAAAAAAAAAAAAAAAAAAAAAAAAAAAAAAAA==

> <PUBCHEM_IUPAC_OPENEYE_NAME>
1H-pyrazole

> <PUBCHEM_IUPAC_CAS_NAME>
1H-pyrazole

> <PUBCHEM_IUPAC_NAME_MARKUP>
1<I>H</I>-pyrazole

> <PUBCHEM_IUPAC_NAME>
1H-pyrazole

> <PUBCHEM_IUPAC_SYSTEMATIC_NAME>
1H-pyrazole

> <PUBCHEM_IUPAC_TRADITIONAL_NAME>
1H-pyrazole

> <PUBCHEM_IUPAC_INCHI>
InChI=1S/C3H4N2/c1-2-4-5-3-1/h1-3H,(H,4,5)

> <PUBCHEM_IUPAC_INCHIKEY>
WTKZEGDFNFYCGP-UHFFFAOYSA-N

> <PUBCHEM_XLOGP3>
0.3

> <PUBCHEM_EXACT_MASS>
68.037448136

> <PUBCHEM_MOLECULAR_FORMULA>
C3H4N2

> <PUBCHEM_MOLECULAR_WEIGHT>
68.08

> <PUBCHEM_OPENEYE_CAN_SMILES>
C1=CNN=C1

> <PUBCHEM_OPENEYE_ISO_SMILES>
C1=CNN=C1

> <PUBCHEM_CACTVS_TPSA>
28.7

> <PUBCHEM_MONOISOTOPIC_WEIGHT>
68.037448136

> <PUBCHEM_TOTAL_CHARGE>
0

> <PUBCHEM_HEAVY_ATOM_COUNT>
5

> <PUBCHEM_ATOM_DEF_STEREO_COUNT>
0

> <PUBCHEM_ATOM_UDEF_STEREO_COUNT>
0

> <PUBCHEM_BOND_DEF_STEREO_COUNT>
0

> <PUBCHEM_BOND_UDEF_STEREO_COUNT>
0

> <PUBCHEM_ISOTOPIC_ATOM_COUNT>
0

> <PUBCHEM_COMPONENT_COUNT>
1

> <PUBCHEM_CACTVS_TAUTO_COUNT>
1

> <PUBCHEM_COORDINATE_TYPE>
1
5
255

> <PUBCHEM_BONDANNOTATIONS>
1  2  8
1  3  8
2  5  8
3  4  8
4  5  8

$$$$
1057
  SciTegic09112316442D

 15 15  0  0  0  0            999 V2000
    4.2690    1.3450    0.0000 O   0  0
    6.0010    0.3450    0.0000 O   0  0
    2.5369    0.3450    0.0000 O   0  0
    4.2690    0.3450    0.0000 C   0  0
    5.1350   -0.1550    0.0000 C   0  0
    3.4030   -0.1550    0.0000 C   0  0
    5.1350   -1.1550    0.0000 C   0  0
    3.4030   -1.1550    0.0000 C   0  0
    4.2690   -1.6550    0.0000 C   0  0
    5.6720   -1.4650    0.0000 H   0  0
    2.8660   -1.4650    0.0000 H   0  0
    4.2690   -2.2750    0.0000 H   0  0
    4.8059    1.6550    0.0000 H   0  0
    6.5380    0.0350    0.0000 H   0  0
    2.0000    0.0350    0.0000 H   0  0
  1  4  1  0
  1 13  1  0
  2  5  1  0
  2 14  1  0
  3  6  1  0
  3 15  1  0
  4  5  2  0
  4  6  1  0
  5  7  1  0
  6  8  2  0
  7  9  2  0
  7 10  1  0
  8  9  1  0
  8 11  1  0
  9 12  1  0
M  END
> <Name>
1057

> <OBJECTID>
9223372848606937102

> <PUBCHEM_COMPOUND_CID>
1057

> <PUBCHEM_COMPOUND_CANONICALIZED>
1

> <PUBCHEM_CACTVS_COMPLEXITY>
84.3

> <PUBCHEM_CACTVS_HBOND_ACCEPTOR>
3

> <PUBCHEM_CACTVS_HBOND_DONOR>
3

> <PUBCHEM_CACTVS_ROTATABLE_BOND>
0

> <PUBCHEM_CACTVS_SUBSKEYS>
AAADcYBgMAAAAAAAAAAAAAAAAAAAAAAAAAAwAAAAAAAAAAABAAAAGgAACAAACASAkAAwBoAAAgCAACBCAAACAAAgIAAIiAAGiIgJJyKCERKAcAElwBUJmAeAYAQAAAAACAAAQAAAAAAQAACAAAAAAAAAAA==

> <PUBCHEM_IUPAC_OPENEYE_NAME>
benzene-1,2,3-triol

> <PUBCHEM_IUPAC_CAS_NAME>
benzene-1,2,3-triol

> <PUBCHEM_IUPAC_NAME_MARKUP>
benzene-1,2,3-triol

> <PUBCHEM_IUPAC_NAME>
benzene-1,2,3-triol

> <PUBCHEM_IUPAC_SYSTEMATIC_NAME>
benzene-1,2,3-triol

> <PUBCHEM_IUPAC_TRADITIONAL_NAME>
pyrogallol

> <PUBCHEM_IUPAC_INCHI>
InChI=1S/C6H6O3/c7-4-2-1-3-5(8)6(4)9/h1-3,7-9H

> <PUBCHEM_IUPAC_INCHIKEY>
WQGWDDDVZFFDIG-UHFFFAOYSA-N

> <PUBCHEM_XLOGP3>
0.5

> <PUBCHEM_EXACT_MASS>
126.031694049

> <PUBCHEM_MOLECULAR_FORMULA>
C6H6O3

> <PUBCHEM_MOLECULAR_WEIGHT>
126.11

> <PUBCHEM_OPENEYE_CAN_SMILES>
C1=CC(=C(C(=C1)O)O)O

> <PUBCHEM_OPENEYE_ISO_SMILES>
C1=CC(=C(C(=C1)O)O)O

> <PUBCHEM_CACTVS_TPSA>
60.7

> <PUBCHEM_MONOISOTOPIC_WEIGHT>
126.031694049

> <PUBCHEM_TOTAL_CHARGE>
0

> <PUBCHEM_HEAVY_ATOM_COUNT>
9

> <PUBCHEM_ATOM_DEF_STEREO_COUNT>
0

> <PUBCHEM_ATOM_UDEF_STEREO_COUNT>
0

> <PUBCHEM_BOND_DEF_STEREO_COUNT>
0

> <PUBCHEM_BOND_UDEF_STEREO_COUNT>
0

> <PUBCHEM_ISOTOPIC_ATOM_COUNT>
0

> <PUBCHEM_COMPONENT_COUNT>
1

> <PUBCHEM_CACTVS_TAUTO_COUNT>
-1

> <PUBCHEM_COORDINATE_TYPE>
1
5
255

> <PUBCHEM_BONDANNOTATIONS>
4  5  8
4  6  8
5  7  8
6  8  8
7  9  8
8  9  8

$$$$
1188
  SciTegic09112316442D

 15 16  0  0  0  0            999 V2000
    3.7320    1.8100    0.0000 O   0  0
    2.0000   -1.1900    0.0000 O   0  0
    3.7320   -1.1900    0.0000 N   0  0
    5.5443    0.6147    0.0000 N   0  0
    2.8660    0.3100    0.0000 N   0  0
    5.5443   -0.9947    0.0000 N   0  0
    4.5981    0.3100    0.0000 C   0  0
    4.5981   -0.6900    0.0000 C   0  0
    3.7320    0.8100    0.0000 C   0  0
    2.8660   -0.6900    0.0000 C   0  0
    6.1279   -0.1900    0.0000 C   0  0
    3.7320   -1.8100    0.0000 H   0  0
    5.7369    1.2040    0.0000 H   0  0
    2.3291    0.6200    0.0000 H   0  0
    6.7479   -0.1900    0.0000 H   0  0
  1  9  2  0
  2 10  2  0
  3  8  1  0
  3 10  1  0
  3 12  1  0
  4  7  1  0
  4 11  1  0
  4 13  1  0
  5  9  1  0
  5 10  1  0
  5 14  1  0
  6  8  1  0
  6 11  2  0
  7  8  2  0
  7  9  1  0
 11 15  1  0
M  END
> <Name>
1188

> <OBJECTID>
9223372852901904398

> <PUBCHEM_COMPOUND_CID>
1188

> <PUBCHEM_COMPOUND_CANONICALIZED>
1

> <PUBCHEM_CACTVS_COMPLEXITY>
217

> <PUBCHEM_CACTVS_HBOND_ACCEPTOR>
3

> <PUBCHEM_CACTVS_HBOND_DONOR>
3

> <PUBCHEM_CACTVS_ROTATABLE_BOND>
0

> <PUBCHEM_CACTVS_SUBSKEYS>
AAADcYBjsAAAAAAAAAAAAAAAAAAAAWAAAAAsAAAAAAAAAFgBgAAAHgAQAAAACAgBlgQFsBbJkACoAQdxdACAgC2XEKABUYGoVECASAhASCAUAIgIBSJAAGAAAAAAAAAAAAAAAAAAAAAAAAAAAAAAAAAAAA==

> <PUBCHEM_IUPAC_OPENEYE_NAME>
3,7-dihydropurine-2,6-dione

> <PUBCHEM_IUPAC_CAS_NAME>
3,7-dihydropurine-2,6-dione

> <PUBCHEM_IUPAC_NAME_MARKUP>
3,7-dihydropurine-2,6-dione

> <PUBCHEM_IUPAC_NAME>
3,7-dihydropurine-2,6-dione

> <PUBCHEM_IUPAC_SYSTEMATIC_NAME>
3,7-dihydropurine-2,6-dione

> <PUBCHEM_IUPAC_TRADITIONAL_NAME>
xanthine

> <PUBCHEM_IUPAC_INCHI>
InChI=1S/C5H4N4O2/c10-4-2-3(7-1-6-2)8-5(11)9-4/h1H,(H3,6,7,8,9,10,11)

> <PUBCHEM_IUPAC_INCHIKEY>
LRFVTYWOQMYALW-UHFFFAOYSA-N

> <PUBCHEM_XLOGP3>
-0.7

> <PUBCHEM_EXACT_MASS>
152.03342538

> <PUBCHEM_MOLECULAR_FORMULA>
C5H4N4O2

> <PUBCHEM_MOLECULAR_WEIGHT>
152.11

> <PUBCHEM_OPENEYE_CAN_SMILES>
C1=NC2=C(N1)C(=O)NC(=O)N2

> <PUBCHEM_OPENEYE_ISO_SMILES>
C1=NC2=C(N1)C(=O)NC(=O)N2

> <PUBCHEM_CACTVS_TPSA>
86.9

> <PUBCHEM_MONOISOTOPIC_WEIGHT>
152.03342538

> <PUBCHEM_TOTAL_CHARGE>
0

> <PUBCHEM_HEAVY_ATOM_COUNT>
11

> <PUBCHEM_ATOM_DEF_STEREO_COUNT>
0

> <PUBCHEM_ATOM_UDEF_STEREO_COUNT>
0

> <PUBCHEM_BOND_DEF_STEREO_COUNT>
0

> <PUBCHEM_BOND_UDEF_STEREO_COUNT>
0

> <PUBCHEM_ISOTOPIC_ATOM_COUNT>
0

> <PUBCHEM_COMPONENT_COUNT>
1

> <PUBCHEM_CACTVS_TAUTO_COUNT>
15

> <PUBCHEM_COORDINATE_TYPE>
1
5
255

> <PUBCHEM_BONDANNOTATIONS>
3  10  8
3  8  8
4  11  8
4  7  8
5  10  8
5  9  8
6  11  8
6  8  8
7  8  8
7  9  8

$$$$
5054
  SciTegic09112316442D

 14 14  0  0  0  0            999 V2000
    2.0000   -1.3450    0.0000 O   0  0
    3.7320    1.6550    0.0000 O   0  0
    2.8660   -0.8450    0.0000 C   0  0
    3.7320    0.6550    0.0000 C   0  0
    2.8660    0.1550    0.0000 C   0  0
    3.7320   -1.3450    0.0000 C   0  0
    4.5981    0.1550    0.0000 C   0  0
    4.5981   -0.8450    0.0000 C   0  0
    2.3291    0.4650    0.0000 H   0  0
    3.7320   -1.9650    0.0000 H   0  0
    5.1350    0.4650    0.0000 H   0  0
    5.1350   -1.1550    0.0000 H   0  0
    2.0000   -1.9650    0.0000 H   0  0
    4.2690    1.9650    0.0000 H   0  0
  1  3  1  0
  1 13  1  0
  2  4  1  0
  2 14  1  0
  3  5  2  0
  3  6  1  0
  4  5  1  0
  4  7  2  0
  5  9  1  0
  6  8  2  0
  6 10  1  0
  7  8  1  0
  7 11  1  0
  8 12  1  0
M  END
> <Name>
5054

> <OBJECTID>
9223372857196871694

> <PUBCHEM_COMPOUND_CID>
5054

> <PUBCHEM_COMPOUND_CANONICALIZED>
1

> <PUBCHEM_CACTVS_COMPLEXITY>
64.9

> <PUBCHEM_CACTVS_HBOND_ACCEPTOR>
2

> <PUBCHEM_CACTVS_HBOND_DONOR>
2

> <PUBCHEM_CACTVS_ROTATABLE_BOND>
0

> <PUBCHEM_CACTVS_SUBSKEYS>
AAADcYBgMAAAAAAAAAAAAAAAAAAAAAAAAAAwAAAAAAAAAAABAAAAGgAACAAACASAkAAwBoAAAgCAACBCAAACAAAgIAAIiAAGCIgIJyKCERKAcAAlwBUImAeAYAQAAAAACAAAAAAAAAAQAAAAAAAAAAAAAA==

> <PUBCHEM_IUPAC_OPENEYE_NAME>
benzene-1,3-diol

> <PUBCHEM_IUPAC_CAS_NAME>
benzene-1,3-diol

> <PUBCHEM_IUPAC_NAME_MARKUP>
benzene-1,3-diol

> <PUBCHEM_IUPAC_NAME>
benzene-1,3-diol

> <PUBCHEM_IUPAC_SYSTEMATIC_NAME>
benzene-1,3-diol

> <PUBCHEM_IUPAC_TRADITIONAL_NAME>
resorcinol

> <PUBCHEM_IUPAC_INCHI>
InChI=1S/C6H6O2/c7-5-2-1-3-6(8)4-5/h1-4,7-8H

> <PUBCHEM_IUPAC_INCHIKEY>
GHMLBKRAJCXXBS-UHFFFAOYSA-N

> <PUBCHEM_XLOGP3>
0.8

> <PUBCHEM_EXACT_MASS>
110.03677943

> <PUBCHEM_MOLECULAR_FORMULA>
C6H6O2

> <PUBCHEM_MOLECULAR_WEIGHT>
110.11

> <PUBCHEM_OPENEYE_CAN_SMILES>
C1=CC(=CC(=C1)O)O

> <PUBCHEM_OPENEYE_ISO_SMILES>
C1=CC(=CC(=C1)O)O

> <PUBCHEM_CACTVS_TPSA>
40.5

> <PUBCHEM_MONOISOTOPIC_WEIGHT>
110.03677943

> <PUBCHEM_TOTAL_CHARGE>
0

> <PUBCHEM_HEAVY_ATOM_COUNT>
8

> <PUBCHEM_ATOM_DEF_STEREO_COUNT>
0

> <PUBCHEM_ATOM_UDEF_STEREO_COUNT>
0

> <PUBCHEM_BOND_DEF_STEREO_COUNT>
0

> <PUBCHEM_BOND_UDEF_STEREO_COUNT>
0

> <PUBCHEM_ISOTOPIC_ATOM_COUNT>
0

> <PUBCHEM_COMPONENT_COUNT>
1

> <PUBCHEM_CACTVS_TAUTO_COUNT>
-1

> <PUBCHEM_COORDINATE_TYPE>
1
5
255

> <PUBCHEM_BONDANNOTATIONS>
3  5  8
3  6  8
4  5  8
4  7  8
6  8  8
7  8  8

$$$$
5962
  SciTegic09112316442D

 24 23  0  0  1  0            999 V2000
    6.0010    1.4050    0.0000 O   0  0
    5.1350    2.9050    0.0000 O   0  0
    3.4030    1.9050    0.0000 N   0  0
    2.5369   -2.5950    0.0000 N   0  0
    3.4030   -0.0950    0.0000 C   0  0
    4.2690    0.4050    0.0000 C   0  0
    3.4030   -1.0950    0.0000 C   0  0
    4.2690    1.4050    0.0000 C   0  0  1  0  0  0
    2.5369   -1.5950    0.0000 C   0  0
    5.1350    1.9050    0.0000 C   0  0
    3.1909    0.4876    0.0000 H   0  0
    2.7924   -0.2027    0.0000 H   0  0
    4.4810   -0.1776    0.0000 H   0  0
    4.8796    0.5127    0.0000 H   0  0
    3.6150   -1.6776    0.0000 H   0  0
    4.0135   -0.9873    0.0000 H   0  0
    4.2690    2.0250    0.0000 H   0  0
    2.3249   -1.0124    0.0000 H   0  0
    1.9264   -1.7027    0.0000 H   0  0
    2.8660    1.5950    0.0000 H   0  0
    3.4030    2.5250    0.0000 H   0  0
    2.0000   -2.9050    0.0000 H   0  0
    3.0739   -2.9050    0.0000 H   0  0
    6.5380    1.7150    0.0000 H   0  0
  1 10  1  0
  1 24  1  0
  2 10  2  0
  8  3  1  6
  3 20  1  0
  3 21  1  0
  4  9  1  0
  4 22  1  0
  4 23  1  0
  5  6  1  0
  5  7  1  0
  5 11  1  0
  5 12  1  0
  6  8  1  0
  6 13  1  0
  6 14  1  0
  7  9  1  0
  7 15  1  0
  7 16  1  0
  8 10  1  0
  8 17  1  0
  9 18  1  0
  9 19  1  0
M  END
> <Name>
5962

> <OBJECTID>
9223372861491838990

> <PUBCHEM_COMPOUND_CID>
5962

> <PUBCHEM_COMPOUND_CANONICALIZED>
1

> <PUBCHEM_CACTVS_COMPLEXITY>
106

> <PUBCHEM_CACTVS_HBOND_ACCEPTOR>
4

> <PUBCHEM_CACTVS_HBOND_DONOR>
3

> <PUBCHEM_CACTVS_ROTATABLE_BOND>
5

> <PUBCHEM_CACTVS_SUBSKEYS>
AAADccBjMAAAAAAAAAAAAAAAAAAAAAAAAAAAAAAAAAAAAAAAAAAAHgAQCAAACCjBgAQACABAAgAIAACQCAAAAAAAAAAAAIGAAAACABIAgAAAQAAEEAAAAAGYSAAAAAAAAAAAAAAAAAAAAAAAAAAAAAAAAA==

> <PUBCHEM_IUPAC_OPENEYE_NAME>
(2S)-2,6-diaminohexanoic acid

> <PUBCHEM_IUPAC_CAS_NAME>
(2S)-2,6-diaminohexanoic acid

> <PUBCHEM_IUPAC_NAME_MARKUP>
(2<I>S</I>)-2,6-diaminohexanoic acid

> <PUBCHEM_IUPAC_NAME>
(2S)-2,6-diaminohexanoic acid

> <PUBCHEM_IUPAC_SYSTEMATIC_NAME>
(2S)-2,6-bis(azanyl)hexanoic acid

> <PUBCHEM_IUPAC_TRADITIONAL_NAME>
(2S)-2,6-diaminohexanoic acid

> <PUBCHEM_IUPAC_INCHI>
InChI=1S/C6H14N2O2/c7-4-2-1-3-5(8)6(9)10/h5H,1-4,7-8H2,(H,9,10)/t5-/m0/s1

> <PUBCHEM_IUPAC_INCHIKEY>
KDXKERNSBIXSRK-YFKPBYRVSA-N

> <PUBCHEM_XLOGP3>
-3

> <PUBCHEM_EXACT_MASS>
146.105527694

> <PUBCHEM_MOLECULAR_FORMULA>
C6H14N2O2

> <PUBCHEM_MOLECULAR_WEIGHT>
146.19

> <PUBCHEM_OPENEYE_CAN_SMILES>
C(CCN)CC(C(=O)O)N

> <PUBCHEM_OPENEYE_ISO_SMILES>
C(CCN)C[C@@H](C(=O)O)N

> <PUBCHEM_CACTVS_TPSA>
89.3

> <PUBCHEM_MONOISOTOPIC_WEIGHT>
146.105527694

> <PUBCHEM_TOTAL_CHARGE>
0

> <PUBCHEM_HEAVY_ATOM_COUNT>
10

> <PUBCHEM_ATOM_DEF_STEREO_COUNT>
1

> <PUBCHEM_ATOM_UDEF_STEREO_COUNT>
0

> <PUBCHEM_BOND_DEF_STEREO_COUNT>
0

> <PUBCHEM_BOND_UDEF_STEREO_COUNT>
0

> <PUBCHEM_ISOTOPIC_ATOM_COUNT>
0

> <PUBCHEM_COMPONENT_COUNT>
1

> <PUBCHEM_CACTVS_TAUTO_COUNT>
4

> <PUBCHEM_COORDINATE_TYPE>
1
5
255

> <PUBCHEM_BONDANNOTATIONS>
8  3  6

$$$$
6021
  SciTegic09112316442D

 31 33  0  0  1  0            999 V2000
    4.4026    0.7369    0.0000 O   0  0
    6.7485   -0.3550    0.0000 O   0  0
    6.7523    1.8206    0.0000 O   0  0
    5.3548    3.2384    0.0000 O   0  0
    2.8660   -3.8284    0.0000 O   0  0
    4.6783   -1.0237    0.0000 N   0  0
    2.8660   -0.8284    0.0000 N   0  0
    4.6783   -2.6332    0.0000 N   0  0
    2.0000   -2.3284    0.0000 N   0  0
    5.9405    0.2342    0.0000 C   0  0  1  0  0  0
    4.9889   -0.0732    0.0000 C   0  0  1  0  0  0
    5.9422    1.2342    0.0000 C   0  0  1  0  0  0
    4.9917    1.5449    0.0000 C   0  0  1  0  0  0
    4.6844    2.4964    0.0000 C   0  0
    3.7320   -1.3284    0.0000 C   0  0
    5.2619   -1.8284    0.0000 C   0  0
    3.7320   -2.3284    0.0000 C   0  0
    2.8660   -2.8284    0.0000 C   0  0
    2.0000   -1.3284    0.0000 C   0  0
    5.4266   -0.5123    0.0000 H   0  0
    6.4934    0.5147    0.0000 H   0  0
    5.8463    1.8467    0.0000 H   0  0
    4.3795    1.6429    0.0000 H   0  0
    4.3035    2.9857    0.0000 H   0  0
    4.1364    2.2063    0.0000 H   0  0
    7.3154   -0.1038    0.0000 H   0  0
    5.8819   -1.8284    0.0000 H   0  0
    7.3182    1.5674    0.0000 H   0  0
    2.8660   -0.2084    0.0000 H   0  0
    5.1642    3.8284    0.0000 H   0  0
    1.4631   -1.0184    0.0000 H   0  0
  1 11  1  0
  1 13  1  0
 10  2  1  1
  2 26  1  0
 12  3  1  1
  3 28  1  0
  4 14  1  0
  4 30  1  0
  5 18  2  0
 11  6  1  6
  6 15  1  0
  6 16  1  0
  7 15  1  0
  7 19  1  0
  7 29  1  0
  8 16  2  0
  8 17  1  0
  9 18  1  0
  9 19  2  0
 10 11  1  0
 10 12  1  0
 10 21  1  0
 11 20  1  0
 12 13  1  0
 12 22  1  0
 13 14  1  6
 13 23  1  0
 14 24  1  0
 14 25  1  0
 15 17  2  0
 16 27  1  0
 17 18  1  0
 19 31  1  0
M  END
> <Name>
6021

> <OBJECTID>
9223372865786806286

> <PUBCHEM_COMPOUND_CID>
6021

> <PUBCHEM_COMPOUND_CANONICALIZED>
1

> <PUBCHEM_CACTVS_COMPLEXITY>
405

> <PUBCHEM_CACTVS_HBOND_ACCEPTOR>
6

> <PUBCHEM_CACTVS_HBOND_DONOR>
4

> <PUBCHEM_CACTVS_ROTATABLE_BOND>
2

> <PUBCHEM_CACTVS_SUBSKEYS>
AAADccBzuAAAAAAAAAAAAAAAAAAAAWJAAAAgAAAAAAAAAEABgAAAHgAQCAAACBzhlgYFsBfMFgCoAQdxdACAgC0XEKABUIGoVECDWApAyCAeQIAPAALTAGDwMAIAAAAAAAAAAAAAAAAAAAAAAAAAAAAAAA==

> <PUBCHEM_IUPAC_OPENEYE_NAME>
9-[(2R,3R,4S,5R)-3,4-dihydroxy-5-(hydroxymethyl)tetrahydrofuran-2-yl]-3H-purin-6-one

> <PUBCHEM_IUPAC_CAS_NAME>
9-[(2R,3R,4S,5R)-3,4-dihydroxy-5-(hydroxymethyl)-2-oxolanyl]-3H-purin-6-one

> <PUBCHEM_IUPAC_NAME_MARKUP>
9-[(2<I>R</I>,3<I>R</I>,4<I>S</I>,5<I>R</I>)-3,4-dihydroxy-5-(hydroxymethyl)oxolan-2-yl]-3<I>H</I>-purin-6-one

> <PUBCHEM_IUPAC_NAME>
9-[(2R,3R,4S,5R)-3,4-dihydroxy-5-(hydroxymethyl)oxolan-2-yl]-3H-purin-6-one

> <PUBCHEM_IUPAC_SYSTEMATIC_NAME>
9-[(2R,3R,4S,5R)-5-(hydroxymethyl)-3,4-bis(oxidanyl)oxolan-2-yl]-3H-purin-6-one

> <PUBCHEM_IUPAC_TRADITIONAL_NAME>
9-[(2R,3R,4S,5R)-3,4-dihydroxy-5-methylol-tetrahydrofuran-2-yl]-3H-purin-6-one

> <PUBCHEM_IUPAC_INCHI>
InChI=1S/C10H12N4O5/c15-1-4-6(16)7(17)10(19-4)14-3-13-5-8(14)11-2-12-9(5)18/h2-4,6-7,10,15-17H,1H2,(H,11,12,18)/t4-,6-,7-,10-/m1/s1

> <PUBCHEM_IUPAC_INCHIKEY>
UGQMRVRMYYASKQ-KQYNXXCUSA-N

> <PUBCHEM_XLOGP3>
-2.1

> <PUBCHEM_EXACT_MASS>
268.0807695

> <PUBCHEM_MOLECULAR_FORMULA>
C10H12N4O5

> <PUBCHEM_MOLECULAR_WEIGHT>
268.23

> <PUBCHEM_OPENEYE_CAN_SMILES>
C1=NC(=O)C2=C(N1)N(C=N2)C3C(C(C(O3)CO)O)O

> <PUBCHEM_OPENEYE_ISO_SMILES>
C1=NC(=O)C2=C(N1)N(C=N2)[C@H]3[C@@H]([C@@H]([C@H](O3)CO)O)O

> <PUBCHEM_CACTVS_TPSA>
129

> <PUBCHEM_MONOISOTOPIC_WEIGHT>
268.0807695

> <PUBCHEM_TOTAL_CHARGE>
0

> <PUBCHEM_HEAVY_ATOM_COUNT>
19

> <PUBCHEM_ATOM_DEF_STEREO_COUNT>
4

> <PUBCHEM_ATOM_UDEF_STEREO_COUNT>
0

> <PUBCHEM_BOND_DEF_STEREO_COUNT>
0

> <PUBCHEM_BOND_UDEF_STEREO_COUNT>
0

> <PUBCHEM_ISOTOPIC_ATOM_COUNT>
0

> <PUBCHEM_COMPONENT_COUNT>
1

> <PUBCHEM_CACTVS_TAUTO_COUNT>
-1

> <PUBCHEM_COORDINATE_TYPE>
1
5
255

> <PUBCHEM_BONDANNOTATIONS>
13  14  6
15  17  8
17  18  8
10  2  5
12  3  5
11  6  6
6  15  8
6  16  8
7  15  8
7  19  8
8  16  8
8  17  8
9  18  8
9  19  8

$$$$
6106
  SciTegic09112316442D

 22 21  0  0  1  0            999 V2000
    5.4641    0.5000    0.0000 O   0  0
    4.5981    2.0000    0.0000 O   0  0
    2.8660    1.0000    0.0000 N   0  0
    2.8660   -1.0000    0.0000 C   0  0
    3.7320   -0.5000    0.0000 C   0  0
    3.7320    0.5000    0.0000 C   0  0  1  0  0  0
    2.8660   -2.0000    0.0000 C   0  0
    2.0000   -0.5000    0.0000 C   0  0
    4.5981    1.0000    0.0000 C   0  0
    2.8660   -0.3800    0.0000 H   0  0
    3.9441   -1.0826    0.0000 H   0  0
    4.3426   -0.3923    0.0000 H   0  0
    3.7320    1.1200    0.0000 H   0  0
    2.2460   -2.0000    0.0000 H   0  0
    2.8660   -2.6200    0.0000 H   0  0
    3.4860   -2.0000    0.0000 H   0  0
    2.3100    0.0369    0.0000 H   0  0
    1.4631   -0.1900    0.0000 H   0  0
    1.6900   -1.0369    0.0000 H   0  0
    2.3291    0.6900    0.0000 H   0  0
    2.8660    1.6200    0.0000 H   0  0
    6.0010    0.8100    0.0000 H   0  0
  1  9  1  0
  1 22  1  0
  2  9  2  0
  6  3  1  6
  3 20  1  0
  3 21  1  0
  4  5  1  0
  4  7  1  0
  4  8  1  0
  4 10  1  0
  5  6  1  0
  5 11  1  0
  5 12  1  0
  6  9  1  0
  6 13  1  0
  7 14  1  0
  7 15  1  0
  7 16  1  0
  8 17  1  0
  8 18  1  0
  8 19  1  0
M  END
> <Name>
6106

> <OBJECTID>
9223372870081773582

> <PUBCHEM_COMPOUND_CID>
6106

> <PUBCHEM_COMPOUND_CANONICALIZED>
1

> <PUBCHEM_CACTVS_COMPLEXITY>
101

> <PUBCHEM_CACTVS_HBOND_ACCEPTOR>
3

> <PUBCHEM_CACTVS_HBOND_DONOR>
2

> <PUBCHEM_CACTVS_ROTATABLE_BOND>
3

> <PUBCHEM_CACTVS_SUBSKEYS>
AAADccBiMAAAAAAAAAAAAAAAAAAAAAAAAAAAAAAAAAAAAAAAAAAAHgAQCAAADSjBgAQCCABAAgAIAACQCAAAAAAAAAAAAIGAAAACABIAgAAAQAAEEAAAAACIAAAMAAAAAAAAAAAAAAAAAAAAAAAAAAAAAA==

> <PUBCHEM_IUPAC_OPENEYE_NAME>
(2S)-2-amino-4-methyl-pentanoic acid

> <PUBCHEM_IUPAC_CAS_NAME>
(2S)-2-amino-4-methylpentanoic acid

> <PUBCHEM_IUPAC_NAME_MARKUP>
(2<I>S</I>)-2-amino-4-methylpentanoic acid

> <PUBCHEM_IUPAC_NAME>
(2S)-2-amino-4-methylpentanoic acid

> <PUBCHEM_IUPAC_SYSTEMATIC_NAME>
(2S)-2-azanyl-4-methyl-pentanoic acid

> <PUBCHEM_IUPAC_TRADITIONAL_NAME>
(2S)-2-amino-4-methyl-valeric acid

> <PUBCHEM_IUPAC_INCHI>
InChI=1S/C6H13NO2/c1-4(2)3-5(7)6(8)9/h4-5H,3,7H2,1-2H3,(H,8,9)/t5-/m0/s1

> <PUBCHEM_IUPAC_INCHIKEY>
ROHFNLRQFUQHCH-YFKPBYRVSA-N

> <PUBCHEM_XLOGP3>
-1.5

> <PUBCHEM_EXACT_MASS>
131.094628657

> <PUBCHEM_MOLECULAR_FORMULA>
C6H13NO2

> <PUBCHEM_MOLECULAR_WEIGHT>
131.17

> <PUBCHEM_OPENEYE_CAN_SMILES>
CC(C)CC(C(=O)O)N

> <PUBCHEM_OPENEYE_ISO_SMILES>
CC(C)C[C@@H](C(=O)O)N

> <PUBCHEM_CACTVS_TPSA>
63.3

> <PUBCHEM_MONOISOTOPIC_WEIGHT>
131.094628657

> <PUBCHEM_TOTAL_CHARGE>
0

> <PUBCHEM_HEAVY_ATOM_COUNT>
9

> <PUBCHEM_ATOM_DEF_STEREO_COUNT>
1

> <PUBCHEM_ATOM_UDEF_STEREO_COUNT>
0

> <PUBCHEM_BOND_DEF_STEREO_COUNT>
0

> <PUBCHEM_BOND_UDEF_STEREO_COUNT>
0

> <PUBCHEM_ISOTOPIC_ATOM_COUNT>
0

> <PUBCHEM_COMPONENT_COUNT>
1

> <PUBCHEM_CACTVS_TAUTO_COUNT>
1

> <PUBCHEM_COORDINATE_TYPE>
1
5
255

> <PUBCHEM_BONDANNOTATIONS>
6  3  6

$$$$
6140
  SciTegic09112316442D

 23 23  0  0  1  0            999 V2000
    4.5981    2.1900    0.0000 O   0  0
    2.8660    2.1900    0.0000 O   0  0
    4.5981    0.1900    0.0000 N   0  0
    2.8660    0.1900    0.0000 C   0  0
    3.7320    0.6900    0.0000 C   0  0  1  0  0  0
    2.8660   -0.8100    0.0000 C   0  0
    2.0000   -1.3100    0.0000 C   0  0
    3.7320   -1.3100    0.0000 C   0  0
    3.7320    1.6900    0.0000 C   0  0
    2.0000   -2.3100    0.0000 C   0  0
    3.7320   -2.3100    0.0000 C   0  0
    2.8660   -2.8100    0.0000 C   0  0
    2.6540    0.7726    0.0000 H   0  0
    2.2554    0.0823    0.0000 H   0  0
    3.7320    0.0700    0.0000 H   0  0
    1.4631   -1.0000    0.0000 H   0  0
    4.2690   -1.0000    0.0000 H   0  0
    5.1350    0.5000    0.0000 H   0  0
    4.5981   -0.4300    0.0000 H   0  0
    1.4631   -2.6200    0.0000 H   0  0
    4.2690   -2.6200    0.0000 H   0  0
    2.8660   -3.4300    0.0000 H   0  0
    4.5981    2.8100    0.0000 H   0  0
  1  9  1  0
  1 23  1  0
  2  9  2  0
  5  3  1  1
  3 18  1  0
  3 19  1  0
  4  5  1  0
  4  6  1  0
  4 13  1  0
  4 14  1  0
  5  9  1  0
  5 15  1  0
  6  7  2  0
  6  8  1  0
  7 10  1  0
  7 16  1  0
  8 11  2  0
  8 17  1  0
 10 12  2  0
 10 20  1  0
 11 12  1  0
 11 21  1  0
 12 22  1  0
M  END
> <Name>
6140

> <OBJECTID>
9223372874376740878

> <PUBCHEM_COMPOUND_CID>
6140

> <PUBCHEM_COMPOUND_CANONICALIZED>
1

> <PUBCHEM_CACTVS_COMPLEXITY>
153

> <PUBCHEM_CACTVS_HBOND_ACCEPTOR>
3

> <PUBCHEM_CACTVS_HBOND_DONOR>
2

> <PUBCHEM_CACTVS_ROTATABLE_BOND>
3

> <PUBCHEM_CACTVS_SUBSKEYS>
AAADccByMAAAAAAAAAAAAAAAAAAAAAAAAAAwAAAAAAAAAAABAAAAHgAQCAAADCjBmAQwCIBAAgCIAiDSCAACAAAgAAAIiIGAAIgKIDKAkRGAYAAkkAAIiAeYyKCOAAAAAAAAAAAAAAAAAAAAAAAAAAAAAA==

> <PUBCHEM_IUPAC_OPENEYE_NAME>
(2S)-2-amino-3-phenyl-propanoic acid

> <PUBCHEM_IUPAC_CAS_NAME>
(2S)-2-amino-3-phenylpropanoic acid

> <PUBCHEM_IUPAC_NAME_MARKUP>
(2<I>S</I>)-2-amino-3-phenylpropanoic acid

> <PUBCHEM_IUPAC_NAME>
(2S)-2-amino-3-phenylpropanoic acid

> <PUBCHEM_IUPAC_SYSTEMATIC_NAME>
(2S)-2-azanyl-3-phenyl-propanoic acid

> <PUBCHEM_IUPAC_TRADITIONAL_NAME>
(2S)-2-amino-3-phenyl-propionic acid

> <PUBCHEM_IUPAC_INCHI>
InChI=1S/C9H11NO2/c10-8(9(11)12)6-7-4-2-1-3-5-7/h1-5,8H,6,10H2,(H,11,12)/t8-/m0/s1

> <PUBCHEM_IUPAC_INCHIKEY>
COLNVLDHVKWLRT-QMMMGPOBSA-N

> <PUBCHEM_XLOGP3>
-1.5

> <PUBCHEM_EXACT_MASS>
165.078978594

> <PUBCHEM_MOLECULAR_FORMULA>
C9H11NO2

> <PUBCHEM_MOLECULAR_WEIGHT>
165.19

> <PUBCHEM_OPENEYE_CAN_SMILES>
C1=CC=C(C=C1)CC(C(=O)O)N

> <PUBCHEM_OPENEYE_ISO_SMILES>
C1=CC=C(C=C1)C[C@@H](C(=O)O)N

> <PUBCHEM_CACTVS_TPSA>
63.3

> <PUBCHEM_MONOISOTOPIC_WEIGHT>
165.078978594

> <PUBCHEM_TOTAL_CHARGE>
0

> <PUBCHEM_HEAVY_ATOM_COUNT>
12

> <PUBCHEM_ATOM_DEF_STEREO_COUNT>
1

> <PUBCHEM_ATOM_UDEF_STEREO_COUNT>
0

> <PUBCHEM_BOND_DEF_STEREO_COUNT>
0

> <PUBCHEM_BOND_UDEF_STEREO_COUNT>
0

> <PUBCHEM_ISOTOPIC_ATOM_COUNT>
0

> <PUBCHEM_COMPONENT_COUNT>
1

> <PUBCHEM_CACTVS_TAUTO_COUNT>
2

> <PUBCHEM_COORDINATE_TYPE>
1
5
255

> <PUBCHEM_BONDANNOTATIONS>
10  12  8
11  12  8
5  3  5
6  7  8
6  8  8
7  10  8
8  11  8

$$$$
6274
  SciTegic09112316442D

 20 20  0  0  1  0            999 V2000
    2.5896    0.4476    0.0000 O   0  0
    3.1249   -1.1997    0.0000 O   0  0
    6.7871   -0.8605    0.0000 N   0  0
    4.4918    1.0656    0.0000 N   0  0
    7.2871    0.6784    0.0000 N   0  0
    5.0270   -0.5817    0.0000 C   0  0
    4.2839    0.0874    0.0000 C   0  0  1  0  0  0
    5.9781   -0.2727    0.0000 C   0  0
    3.3328   -0.2216    0.0000 C   0  0
    6.2871    0.6784    0.0000 C   0  0
    7.5961   -0.2727    0.0000 C   0  0
    4.5384   -0.9634    0.0000 H   0  0
    5.3181   -1.1291    0.0000 H   0  0
    4.8735    0.2790    0.0000 H   0  0
    6.7871   -1.4804    0.0000 H   0  0
    5.9226    1.1800    0.0000 H   0  0
    4.0310    1.4804    0.0000 H   0  0
    5.0814    1.2572    0.0000 H   0  0
    8.1858   -0.4643    0.0000 H   0  0
    2.0000    0.2560    0.0000 H   0  0
  1  9  1  0
  1 20  1  0
  2  9  2  0
  3  8  1  0
  3 11  1  0
  3 15  1  0
  7  4  1  1
  4 17  1  0
  4 18  1  0
  5 10  1  0
  5 11  2  0
  6  7  1  0
  6  8  1  0
  6 12  1  0
  6 13  1  0
  7  9  1  0
  7 14  1  0
  8 10  2  0
 10 16  1  0
 11 19  1  0
M  END
> <Name>
6274

> <OBJECTID>
9223372878671708174

> <PUBCHEM_COMPOUND_CID>
6274

> <PUBCHEM_COMPOUND_CANONICALIZED>
1

> <PUBCHEM_CACTVS_COMPLEXITY>
151

> <PUBCHEM_CACTVS_HBOND_ACCEPTOR>
4

> <PUBCHEM_CACTVS_HBOND_DONOR>
3

> <PUBCHEM_CACTVS_ROTATABLE_BOND>
3

> <PUBCHEM_CACTVS_SUBSKEYS>
AAADccBjMAAAAAAAAAAAAAAAAAAAAWAAAAAAAAAAAAAAAAABgAAAHgAQCAAACCjBlgQtmBbJkgCoART3bAAAgC2xEqABUYG4cAiCaBJA2QGUQAAMkAJAQCC8EQIAAAAAAAAAAAAAAAAAAAAAAAAAAAAAAA==

> <PUBCHEM_IUPAC_OPENEYE_NAME>
(2S)-2-amino-3-(1H-imidazol-5-yl)propanoic acid

> <PUBCHEM_IUPAC_CAS_NAME>
(2S)-2-amino-3-(1H-imidazol-5-yl)propanoic acid

> <PUBCHEM_IUPAC_NAME_MARKUP>
(2<I>S</I>)-2-amino-3-(1<I>H</I>-imidazol-5-yl)propanoic acid

> <PUBCHEM_IUPAC_NAME>
(2S)-2-amino-3-(1H-imidazol-5-yl)propanoic acid

> <PUBCHEM_IUPAC_SYSTEMATIC_NAME>
(2S)-2-azanyl-3-(1H-imidazol-5-yl)propanoic acid

> <PUBCHEM_IUPAC_TRADITIONAL_NAME>
(2S)-2-amino-3-(1H-imidazol-5-yl)propionic acid

> <PUBCHEM_IUPAC_INCHI>
InChI=1S/C6H9N3O2/c7-5(6(10)11)1-4-2-8-3-9-4/h2-3,5H,1,7H2,(H,8,9)(H,10,11)/t5-/m0/s1

> <PUBCHEM_IUPAC_INCHIKEY>
HNDVDQJCIGZPNO-YFKPBYRVSA-N

> <PUBCHEM_XLOGP3_AA>
-3.2

> <PUBCHEM_EXACT_MASS>
155.069476538

> <PUBCHEM_MOLECULAR_FORMULA>
C6H9N3O2

> <PUBCHEM_MOLECULAR_WEIGHT>
155.15

> <PUBCHEM_OPENEYE_CAN_SMILES>
C1=C(NC=N1)CC(C(=O)O)N

> <PUBCHEM_OPENEYE_ISO_SMILES>
C1=C(NC=N1)C[C@@H](C(=O)O)N

> <PUBCHEM_CACTVS_TPSA>
92

> <PUBCHEM_MONOISOTOPIC_WEIGHT>
155.069476538

> <PUBCHEM_TOTAL_CHARGE>
0

> <PUBCHEM_HEAVY_ATOM_COUNT>
11

> <PUBCHEM_ATOM_DEF_STEREO_COUNT>
1

> <PUBCHEM_ATOM_UDEF_STEREO_COUNT>
0

> <PUBCHEM_BOND_DEF_STEREO_COUNT>
0

> <PUBCHEM_BOND_UDEF_STEREO_COUNT>
0

> <PUBCHEM_ISOTOPIC_ATOM_COUNT>
0

> <PUBCHEM_COMPONENT_COUNT>
1

> <PUBCHEM_CACTVS_TAUTO_COUNT>
2

> <PUBCHEM_COORDINATE_TYPE>
1
5
255

> <PUBCHEM_BONDANNOTATIONS>
3  11  8
3  8  8
7  4  5
5  10  8
5  11  8
8  10  8

$$$$
6306
  SciTegic09112316442D

 22 21  0  0  1  0            999 V2000
    2.5369   -0.0950    0.0000 O   0  0
    3.4030    1.4050    0.0000 O   0  0
    4.2690   -1.0950    0.0000 N   0  0
    5.1350    0.4050    0.0000 C   0  0  2  0  0  0
    4.2690   -0.0950    0.0000 C   0  0  1  0  0  0
    6.0010   -0.0950    0.0000 C   0  0
    5.1350    1.4050    0.0000 C   0  0
    6.8671    0.4050    0.0000 C   0  0
    3.4030    0.4050    0.0000 C   0  0
    5.6720    0.7150    0.0000 H   0  0
    4.8059   -0.4050    0.0000 H   0  0
    5.6025   -0.5699    0.0000 H   0  0
    6.3996   -0.5699    0.0000 H   0  0
    5.7550    1.4050    0.0000 H   0  0
    5.1350    2.0250    0.0000 H   0  0
    4.5150    1.4050    0.0000 H   0  0
    7.1771   -0.1319    0.0000 H   0  0
    7.4040    0.7150    0.0000 H   0  0
    6.5571    0.9419    0.0000 H   0  0
    3.7320   -1.4050    0.0000 H   0  0
    4.8059   -1.4050    0.0000 H   0  0
    2.0000    0.2150    0.0000 H   0  0
  1  9  1  0
  1 22  1  0
  2  9  2  0
  5  3  1  6
  3 20  1  0
  3 21  1  0
  4  5  1  0
  4  6  1  0
  4  7  1  1
  4 10  1  0
  5  9  1  0
  5 11  1  0
  6  8  1  0
  6 12  1  0
  6 13  1  0
  7 14  1  0
  7 15  1  0
  7 16  1  0
  8 17  1  0
  8 18  1  0
  8 19  1  0
M  END
> <Name>
6306

> <OBJECTID>
9223372882966675470

> <PUBCHEM_COMPOUND_CID>
6306

> <PUBCHEM_COMPOUND_CANONICALIZED>
1

> <PUBCHEM_CACTVS_COMPLEXITY>
103

> <PUBCHEM_CACTVS_HBOND_ACCEPTOR>
3

> <PUBCHEM_CACTVS_HBOND_DONOR>
2

> <PUBCHEM_CACTVS_ROTATABLE_BOND>
3

> <PUBCHEM_CACTVS_SUBSKEYS>
AAADccBiMAAAAAAAAAAAAAAAAAAAAAAAAAAAAAAAAAAAAAAAAAAAHgAQCAAADSjBgAQCCABAAgAIAACQCAAAAAAAAAAAAIGAAAACABIAgAAAQAAEEAAAAACIAAAKAAAAAAAAAAAAAAAAAAAAAAAAAAAAAA==

> <PUBCHEM_IUPAC_OPENEYE_NAME>
(2S,3S)-2-amino-3-methyl-pentanoic acid

> <PUBCHEM_IUPAC_CAS_NAME>
(2S,3S)-2-amino-3-methylpentanoic acid

> <PUBCHEM_IUPAC_NAME_MARKUP>
(2<I>S</I>,3<I>S</I>)-2-amino-3-methylpentanoic acid

> <PUBCHEM_IUPAC_NAME>
(2S,3S)-2-amino-3-methylpentanoic acid

> <PUBCHEM_IUPAC_SYSTEMATIC_NAME>
(2S,3S)-2-azanyl-3-methyl-pentanoic acid

> <PUBCHEM_IUPAC_TRADITIONAL_NAME>
(2S,3S)-2-amino-3-methyl-valeric acid

> <PUBCHEM_IUPAC_INCHI>
InChI=1S/C6H13NO2/c1-3-4(2)5(7)6(8)9/h4-5H,3,7H2,1-2H3,(H,8,9)/t4-,5-/m0/s1

> <PUBCHEM_IUPAC_INCHIKEY>
AGPKZVBTJJNPAG-WHFBIAKZSA-N

> <PUBCHEM_XLOGP3>
-1.7

> <PUBCHEM_EXACT_MASS>
131.094628657

> <PUBCHEM_MOLECULAR_FORMULA>
C6H13NO2

> <PUBCHEM_MOLECULAR_WEIGHT>
131.17

> <PUBCHEM_OPENEYE_CAN_SMILES>
CCC(C)C(C(=O)O)N

> <PUBCHEM_OPENEYE_ISO_SMILES>
CC[C@H](C)[C@@H](C(=O)O)N

> <PUBCHEM_CACTVS_TPSA>
63.3

> <PUBCHEM_MONOISOTOPIC_WEIGHT>
131.094628657

> <PUBCHEM_TOTAL_CHARGE>
0

> <PUBCHEM_HEAVY_ATOM_COUNT>
9

> <PUBCHEM_ATOM_DEF_STEREO_COUNT>
2

> <PUBCHEM_ATOM_UDEF_STEREO_COUNT>
0

> <PUBCHEM_BOND_DEF_STEREO_COUNT>
0

> <PUBCHEM_BOND_UDEF_STEREO_COUNT>
0

> <PUBCHEM_ISOTOPIC_ATOM_COUNT>
0

> <PUBCHEM_COMPONENT_COUNT>
1

> <PUBCHEM_CACTVS_TAUTO_COUNT>
1

> <PUBCHEM_COORDINATE_TYPE>
1
5
255

> <PUBCHEM_BONDANNOTATIONS>
5  3  6
4  7  5

$$$$
6322
  SciTegic09112316442D

 26 25  0  0  1  0            999 V2000
    6.8671    1.8100    0.0000 O   0  0
    6.0010    3.3100    0.0000 O   0  0
    4.2690    2.3100    0.0000 N   0  0
    3.4030   -1.1900    0.0000 N   0  0
    2.5369   -2.6900    0.0000 N   0  0
    4.2690   -2.6900    0.0000 N   0  0
    5.1350    0.8100    0.0000 C   0  0
    4.2690    0.3100    0.0000 C   0  0
    5.1350    1.8100    0.0000 C   0  0  1  0  0  0
    4.2690   -0.6900    0.0000 C   0  0
    6.0010    2.3100    0.0000 C   0  0
    3.4030   -2.1900    0.0000 C   0  0
    5.3471    0.2274    0.0000 H   0  0
    5.7456    0.9177    0.0000 H   0  0
    4.0569    0.8926    0.0000 H   0  0
    3.6584    0.2023    0.0000 H   0  0
    5.1350    2.4300    0.0000 H   0  0
    4.4810   -1.2726    0.0000 H   0  0
    4.8796   -0.5823    0.0000 H   0  0
    3.7320    2.0000    0.0000 H   0  0
    4.2690    2.9300    0.0000 H   0  0
    7.4040    2.1200    0.0000 H   0  0
    2.5369   -3.3100    0.0000 H   0  0
    2.0000   -2.3800    0.0000 H   0  0
    4.2690   -3.3100    0.0000 H   0  0
    4.8059   -2.3800    0.0000 H   0  0
  1 11  1  0
  1 22  1  0
  2 11  2  0
  9  3  1  6
  3 20  1  0
  3 21  1  0
  4 10  1  0
  4 12  2  0
  5 12  1  0
  5 23  1  0
  5 24  1  0
  6 12  1  0
  6 25  1  0
  6 26  1  0
  7  8  1  0
  7  9  1  0
  7 13  1  0
  7 14  1  0
  8 10  1  0
  8 15  1  0
  8 16  1  0
  9 11  1  0
  9 17  1  0
 10 18  1  0
 10 19  1  0
M  END
> <Name>
6322

> <OBJECTID>
9223372887261642766

> <PUBCHEM_COMPOUND_CID>
6322

> <PUBCHEM_COMPOUND_CANONICALIZED>
1

> <PUBCHEM_CACTVS_COMPLEXITY>
176

> <PUBCHEM_CACTVS_HBOND_ACCEPTOR>
4

> <PUBCHEM_CACTVS_HBOND_DONOR>
4

> <PUBCHEM_CACTVS_ROTATABLE_BOND>
5

> <PUBCHEM_CACTVS_SUBSKEYS>
AAADccBjsAAAAAAAAAAAAAAAAAAAAAAAAAAAAAAAAAAAAAAAAAAAHgAQCAAACCjBgAQBCAJAAgAoAACQLAAAAAEAAAAAAIGAAAACABIAgAAAQAAEEAAAAACYEQAAAAAAAAAAAAAAAAAAAAAAAAAAAAAAAA==

> <PUBCHEM_IUPAC_OPENEYE_NAME>
(2S)-2-amino-5-guanidino-pentanoic acid

> <PUBCHEM_IUPAC_CAS_NAME>
(2S)-2-amino-5-(diaminomethylideneamino)pentanoic acid

> <PUBCHEM_IUPAC_NAME_MARKUP>
(2<I>S</I>)-2-amino-5-(diaminomethylideneamino)pentanoic acid

> <PUBCHEM_IUPAC_NAME>
(2S)-2-amino-5-(diaminomethylideneamino)pentanoic acid

> <PUBCHEM_IUPAC_SYSTEMATIC_NAME>
(2S)-2-azanyl-5-[bis(azanyl)methylideneamino]pentanoic acid

> <PUBCHEM_IUPAC_TRADITIONAL_NAME>
(2S)-2-amino-5-guanidino-valeric acid

> <PUBCHEM_IUPAC_INCHI>
InChI=1S/C6H14N4O2/c7-4(5(11)12)2-1-3-10-6(8)9/h4H,1-3,7H2,(H,11,12)(H4,8,9,10)/t4-/m0/s1

> <PUBCHEM_IUPAC_INCHIKEY>
ODKSFYDXXFIFQN-BYPYZUCNSA-N

> <PUBCHEM_XLOGP3>
-4.2

> <PUBCHEM_EXACT_MASS>
174.1116757

> <PUBCHEM_MOLECULAR_FORMULA>
C6H14N4O2

> <PUBCHEM_MOLECULAR_WEIGHT>
174.2

> <PUBCHEM_OPENEYE_CAN_SMILES>
C(CC(C(=O)O)N)CN=C(N)N

> <PUBCHEM_OPENEYE_ISO_SMILES>
C(C[C@@H](C(=O)O)N)CN=C(N)N

> <PUBCHEM_CACTVS_TPSA>
128

> <PUBCHEM_MONOISOTOPIC_WEIGHT>
174.1116757

> <PUBCHEM_TOTAL_CHARGE>
0

> <PUBCHEM_HEAVY_ATOM_COUNT>
12

> <PUBCHEM_ATOM_DEF_STEREO_COUNT>
1

> <PUBCHEM_ATOM_UDEF_STEREO_COUNT>
0

> <PUBCHEM_BOND_DEF_STEREO_COUNT>
0

> <PUBCHEM_BOND_UDEF_STEREO_COUNT>
0

> <PUBCHEM_ISOTOPIC_ATOM_COUNT>
0

> <PUBCHEM_COMPONENT_COUNT>
1

> <PUBCHEM_CACTVS_TAUTO_COUNT>
6

> <PUBCHEM_COORDINATE_TYPE>
1
5
255

> <PUBCHEM_BONDANNOTATIONS>
9  3  6

$$$$
9064
  SciTegic09112316442D

 35 37  0  0  1  0            999 V2000
    6.0682   -0.2704    0.0000 O   0  0
    7.8003    1.7296    0.0000 O   0  0
    4.3198    2.7642    0.0000 O   0  0
    2.5381   -0.2945    0.0000 O   0  0
    8.6663   -2.7704    0.0000 O   0  0
   10.3984   -1.7704    0.0000 O   0  0
    6.9343    1.2296    0.0000 C   0  0  2  0  0  0
    6.9343    0.2296    0.0000 C   0  0  1  0  0  0
    6.0682    1.7296    0.0000 C   0  0
    5.2022    1.2296    0.0000 C   0  0
    5.2022    0.2296    0.0000 C   0  0
    7.8003   -0.2704    0.0000 C   0  0
    4.3083    1.7643    0.0000 C   0  0
    4.3083   -0.3051    0.0000 C   0  0
    7.8003   -1.2704    0.0000 C   0  0
    8.6663    0.2296    0.0000 C   0  0
    3.4022    1.2504    0.0000 C   0  0
    3.4022    0.2088    0.0000 C   0  0
    8.6663   -1.7704    0.0000 C   0  0
    9.5323   -0.2704    0.0000 C   0  0
    9.5323   -1.2704    0.0000 C   0  0
    6.9343    1.8496    0.0000 H   0  0
    6.9343   -0.3904    0.0000 H   0  0
    6.4668    2.2046    0.0000 H   0  0
    5.6697    2.2046    0.0000 H   0  0
    4.3154   -0.9250    0.0000 H   0  0
    7.2634   -1.5804    0.0000 H   0  0
    7.8003    2.3496    0.0000 H   0  0
    8.6663    0.8496    0.0000 H   0  0
    2.8665    1.5625    0.0000 H   0  0
   10.0693    0.0396    0.0000 H   0  0
    3.7865    3.0804    0.0000 H   0  0
    2.0000    0.0134    0.0000 H   0  0
    8.1294   -3.0804    0.0000 H   0  0
   10.9353   -1.4604    0.0000 H   0  0
  1  8  1  0
  1 11  1  0
  7  2  1  6
  2 28  1  0
  3 13  1  0
  3 32  1  0
  4 18  1  0
  4 33  1  0
  5 19  1  0
  5 34  1  0
  6 21  1  0
  6 35  1  0
  7  8  1  0
  7  9  1  0
  7 22  1  0
  8 12  1  1
  8 23  1  0
  9 10  1  0
  9 24  1  0
  9 25  1  0
 10 11  1  0
 10 13  2  0
 11 14  2  0
 12 15  2  0
 12 16  1  0
 13 17  1  0
 14 18  1  0
 14 26  1  0
 15 19  1  0
 15 27  1  0
 16 20  2  0
 16 29  1  0
 17 18  2  0
 17 30  1  0
 19 21  2  0
 20 21  1  0
 20 31  1  0
M  END
> <Name>
9064

> <OBJECTID>
9223372891556610062

> <PUBCHEM_COMPOUND_CID>
9064

> <PUBCHEM_COMPOUND_CANONICALIZED>
1

> <PUBCHEM_CACTVS_COMPLEXITY>
364

> <PUBCHEM_CACTVS_HBOND_ACCEPTOR>
6

> <PUBCHEM_CACTVS_HBOND_DONOR>
5

> <PUBCHEM_CACTVS_ROTATABLE_BOND>
1

> <PUBCHEM_CACTVS_SUBSKEYS>
AAADccBwOAAAAAAAAAAAAAAAAAAAAAAAAAA0YIAAAAAAAACRQAAAGgAACAAADBSgmAIwBoAABgCAAiBCAAACCAAgIAAIiAAGiIgNNyKGMRqCeCGlwBULuAfA4PwOIAABCAAIQABAAAIQABCAAAAAAAAAAA==

> <PUBCHEM_IUPAC_OPENEYE_NAME>
(2R,3S)-2-(3,4-dihydroxyphenyl)chromane-3,5,7-triol

> <PUBCHEM_IUPAC_CAS_NAME>
(2R,3S)-2-(3,4-dihydroxyphenyl)-3,4-dihydro-2H-1-benzopyran-3,5,7-triol

> <PUBCHEM_IUPAC_NAME_MARKUP>
(2<I>R</I>,3<I>S</I>)-2-(3,4-dihydroxyphenyl)-3,4-dihydro-2<I>H</I>-chromene-3,5,7-triol

> <PUBCHEM_IUPAC_NAME>
(2R,3S)-2-(3,4-dihydroxyphenyl)-3,4-dihydro-2H-chromene-3,5,7-triol

> <PUBCHEM_IUPAC_SYSTEMATIC_NAME>
(2R,3S)-2-[3,4-bis(oxidanyl)phenyl]-3,4-dihydro-2H-chromene-3,5,7-triol

> <PUBCHEM_IUPAC_TRADITIONAL_NAME>
(2R,3S)-2-(3,4-dihydroxyphenyl)chroman-3,5,7-triol

> <PUBCHEM_IUPAC_INCHI>
InChI=1S/C15H14O6/c16-8-4-11(18)9-6-13(20)15(21-14(9)5-8)7-1-2-10(17)12(19)3-7/h1-5,13,15-20H,6H2/t13-,15+/m0/s1

> <PUBCHEM_IUPAC_INCHIKEY>
PFTAWBLQPZVEMU-DZGCQCFKSA-N

> <PUBCHEM_XLOGP3>
0.4

> <PUBCHEM_EXACT_MASS>
290.07903816

> <PUBCHEM_MOLECULAR_FORMULA>
C15H14O6

> <PUBCHEM_MOLECULAR_WEIGHT>
290.27

> <PUBCHEM_OPENEYE_CAN_SMILES>
C1C(C(OC2=CC(=CC(=C21)O)O)C3=CC(=C(C=C3)O)O)O

> <PUBCHEM_OPENEYE_ISO_SMILES>
C1[C@@H]([C@H](OC2=CC(=CC(=C21)O)O)C3=CC(=C(C=C3)O)O)O

> <PUBCHEM_CACTVS_TPSA>
110

> <PUBCHEM_MONOISOTOPIC_WEIGHT>
290.07903816

> <PUBCHEM_TOTAL_CHARGE>
0

> <PUBCHEM_HEAVY_ATOM_COUNT>
21

> <PUBCHEM_ATOM_DEF_STEREO_COUNT>
2

> <PUBCHEM_ATOM_UDEF_STEREO_COUNT>
0

> <PUBCHEM_BOND_DEF_STEREO_COUNT>
0

> <PUBCHEM_BOND_UDEF_STEREO_COUNT>
0

> <PUBCHEM_ISOTOPIC_ATOM_COUNT>
0

> <PUBCHEM_COMPONENT_COUNT>
1

> <PUBCHEM_CACTVS_TAUTO_COUNT>
-1

> <PUBCHEM_COORDINATE_TYPE>
1
5
255

> <PUBCHEM_BONDANNOTATIONS>
10  11  8
10  13  8
11  14  8
12  15  8
12  16  8
13  17  8
14  18  8
15  19  8
16  20  8
17  18  8
19  21  8
7  2  6
20  21  8
8  12  5

$$$$
9958
  SciTegic09112316442D

 17 17  0  0  0  0            999 V2000
    4.2690    1.3450    0.0000 O   0  0
    2.5369    0.3450    0.0000 O   0  0
    5.1350   -1.1550    0.0000 C   0  0
    5.1350   -0.1550    0.0000 C   0  0
    4.2690   -1.6550    0.0000 C   0  0
    4.2690    0.3450    0.0000 C   0  0
    3.4030   -0.1550    0.0000 C   0  0
    3.4030   -1.1550    0.0000 C   0  0
    6.0010   -1.6550    0.0000 C   0  0
    5.6720    0.1550    0.0000 H   0  0
    4.2690   -2.2750    0.0000 H   0  0
    2.8660   -1.4650    0.0000 H   0  0
    5.6910   -2.1919    0.0000 H   0  0
    6.5380   -1.9650    0.0000 H   0  0
    6.3110   -1.1181    0.0000 H   0  0
    4.8059    1.6550    0.0000 H   0  0
    2.0000    0.0350    0.0000 H   0  0
  1  6  1  0
  1 16  1  0
  2  7  1  0
  2 17  1  0
  3  4  2  0
  3  5  1  0
  3  9  1  0
  4  6  1  0
  4 10  1  0
  5  8  2  0
  5 11  1  0
  6  7  2  0
  7  8  1  0
  8 12  1  0
  9 13  1  0
  9 14  1  0
  9 15  1  0
M  END
> <Name>
9958

> <OBJECTID>
9223372895851577358

> <PUBCHEM_COMPOUND_CID>
9958

> <PUBCHEM_COMPOUND_CANONICALIZED>
1

> <PUBCHEM_CACTVS_COMPLEXITY>
92.9

> <PUBCHEM_CACTVS_HBOND_ACCEPTOR>
2

> <PUBCHEM_CACTVS_HBOND_DONOR>
2

> <PUBCHEM_CACTVS_ROTATABLE_BOND>
0

> <PUBCHEM_CACTVS_SUBSKEYS>
AAADccBgMAAAAAAAAAAAAAAAAAAAAAAAAAAwAAAAAAAAAAABAAAAGgAACAAADASAmAAyBoAAAgCAAiBCAAACAAAgIAAIiAAGiIgJJiKCERKAcAEkwBEJmAeAwBAOIAABAAAAQABAAAIAAACAAAAAAAAAAA==

> <PUBCHEM_IUPAC_OPENEYE_NAME>
4-methylbenzene-1,2-diol

> <PUBCHEM_IUPAC_CAS_NAME>
4-methylbenzene-1,2-diol

> <PUBCHEM_IUPAC_NAME_MARKUP>
4-methylbenzene-1,2-diol

> <PUBCHEM_IUPAC_NAME>
4-methylbenzene-1,2-diol

> <PUBCHEM_IUPAC_SYSTEMATIC_NAME>
4-methylbenzene-1,2-diol

> <PUBCHEM_IUPAC_TRADITIONAL_NAME>
4-methylpyrocatechol

> <PUBCHEM_IUPAC_INCHI>
InChI=1S/C7H8O2/c1-5-2-3-6(8)7(9)4-5/h2-4,8-9H,1H3

> <PUBCHEM_IUPAC_INCHIKEY>
ZBCATMYQYDCTIZ-UHFFFAOYSA-N

> <PUBCHEM_XLOGP3>
1.4

> <PUBCHEM_EXACT_MASS>
124.052429494

> <PUBCHEM_MOLECULAR_FORMULA>
C7H8O2

> <PUBCHEM_MOLECULAR_WEIGHT>
124.14

> <PUBCHEM_OPENEYE_CAN_SMILES>
CC1=CC(=C(C=C1)O)O

> <PUBCHEM_OPENEYE_ISO_SMILES>
CC1=CC(=C(C=C1)O)O

> <PUBCHEM_CACTVS_TPSA>
40.5

> <PUBCHEM_MONOISOTOPIC_WEIGHT>
124.052429494

> <PUBCHEM_TOTAL_CHARGE>
0

> <PUBCHEM_HEAVY_ATOM_COUNT>
9

> <PUBCHEM_ATOM_DEF_STEREO_COUNT>
0

> <PUBCHEM_ATOM_UDEF_STEREO_COUNT>
0

> <PUBCHEM_BOND_DEF_STEREO_COUNT>
0

> <PUBCHEM_BOND_UDEF_STEREO_COUNT>
0

> <PUBCHEM_ISOTOPIC_ATOM_COUNT>
0

> <PUBCHEM_COMPONENT_COUNT>
1

> <PUBCHEM_CACTVS_TAUTO_COUNT>
18

> <PUBCHEM_COORDINATE_TYPE>
1
5
255

> <PUBCHEM_BONDANNOTATIONS>
3  4  8
3  5  8
4  6  8
5  8  8
6  7  8
7  8  8

$$$$
10621
  SciTegic09112316442D

 77 81  0  0  1  0            999 V2000
    6.8671   -1.8743    0.0000 O   0  0
    6.0010   -4.3743    0.0000 O   0  0
    4.2690   -4.3743    0.0000 O   0  0
    7.7331   -4.3743    0.0000 O   0  0
    7.7331   -0.3743    0.0000 O   0  0
    9.4651   -3.3743    0.0000 O   0  0
    9.4651   -1.3743    0.0000 O   0  0
    6.0010   -6.3743    0.0000 O   0  0
    4.2690   -7.3743    0.0000 O   0  0
    2.5369   -6.3743    0.0000 O   0  0
    5.9589    2.6777    0.0000 O   0  0
    4.1934   -0.3470    0.0000 O   0  0
    3.3550    1.1877    0.0000 O   0  0
    5.1102    7.1810    0.0000 O   0  0
    6.8384    6.1743    0.0000 O   0  0
    6.8671   -2.8743    0.0000 C   0  0  1  0  0  0
    7.7331   -3.3743    0.0000 C   0  0  2  0  0  0
    8.5991   -2.8743    0.0000 C   0  0  1  0  0  0
    8.5991   -1.8743    0.0000 C   0  0  2  0  0  0
    5.1350   -5.8743    0.0000 C   0  0  1  0  0  0
    5.1350   -4.8743    0.0000 C   0  0  2  0  0  0
    4.2690   -6.3743    0.0000 C   0  0  1  0  0  0
    3.4030   -5.8743    0.0000 C   0  0  2  0  0  0
    7.7331   -1.3743    0.0000 C   0  0  1  0  0  0
    6.0010   -3.3743    0.0000 C   0  0
    3.4030   -4.8743    0.0000 C   0  0  2  0  0  0
    2.5369   -4.3743    0.0000 C   0  0
    6.8671    0.1257    0.0000 C   0  0
    6.8630    1.1673    0.0000 C   0  0
    5.9550    1.6777    0.0000 C   0  0
    5.9630   -0.3916    0.0000 C   0  0
    5.0871    1.1810    0.0000 C   0  0
    5.0948    3.1810    0.0000 C   0  0  1  0  0  0
    4.2268    2.6843    0.0000 C   0  0
    5.0670    0.1396    0.0000 C   0  0
    4.2230    1.6844    0.0000 C   0  0
    5.0986    4.1810    0.0000 C   0  0
    5.9666    4.6776    0.0000 C   0  0
    4.2345    4.6843    0.0000 C   0  0
    5.9704    5.6776    0.0000 C   0  0
    4.2384    5.6843    0.0000 C   0  0
    5.1063    6.1810    0.0000 C   0  0
    4.2461    7.6843    0.0000 C   0  0
    6.3301   -2.5643    0.0000 H   0  0
    8.2700   -3.6843    0.0000 H   0  0
    9.1360   -2.5643    0.0000 H   0  0
    8.5991   -1.2543    0.0000 H   0  0
    5.1350   -6.4943    0.0000 H   0  0
    5.1350   -4.2543    0.0000 H   0  0
    3.7320   -6.6843    0.0000 H   0  0
    3.4030   -6.4943    0.0000 H   0  0
    7.1962   -1.0643    0.0000 H   0  0
    5.7890   -2.7917    0.0000 H   0  0
    5.3905   -3.4820    0.0000 H   0  0
    3.4030   -4.2543    0.0000 H   0  0
    2.8469   -3.8374    0.0000 H   0  0
    2.0000   -4.0643    0.0000 H   0  0
    2.2269   -4.9112    0.0000 H   0  0
    8.2700   -4.6843    0.0000 H   0  0
   10.0021   -3.0643    0.0000 H   0  0
    9.4651   -0.7543    0.0000 H   0  0
    6.5380   -6.0643    0.0000 H   0  0
    3.7320   -7.6843    0.0000 H   0  0
    2.0000   -6.0643    0.0000 H   0  0
    7.3976    1.4814    0.0000 H   0  0
    5.9582   -1.0116    0.0000 H   0  0
    5.6329    3.4889    0.0000 H   0  0
    4.0170    3.2678    0.0000 H   0  0
    3.6158    2.5790    0.0000 H   0  0
    6.5023    4.3656    0.0000 H   0  0
    3.6964    4.3764    0.0000 H   0  0
    4.1838   -0.9669    0.0000 H   0  0
    3.7026    5.9964    0.0000 H   0  0
    6.8408    6.7943    0.0000 H   0  0
    4.5582    8.2200    0.0000 H   0  0
    3.7104    7.9964    0.0000 H   0  0
    3.9340    7.1486    0.0000 H   0  0
  1 16  1  0
  1 24  1  0
 21  2  1  1
  2 25  1  0
  3 21  1  0
  3 26  1  0
 17  4  1  6
  4 59  1  0
 24  5  1  1
  5 28  1  0
 18  6  1  1
  6 60  1  0
 19  7  1  6
  7 61  1  0
 20  8  1  6
  8 62  1  0
 22  9  1  6
  9 63  1  0
 23 10  1  1
 10 64  1  0
 11 30  1  0
 11 33  1  0
 12 35  1  0
 12 72  1  0
 13 36  2  0
 14 42  1  0
 14 43  1  0
 15 40  1  0
 15 74  1  0
 16 17  1  0
 16 25  1  1
 16 44  1  0
 17 18  1  0
 17 45  1  0
 18 19  1  0
 18 46  1  0
 19 24  1  0
 19 47  1  0
 20 21  1  0
 20 22  1  0
 20 48  1  0
 21 49  1  0
 22 23  1  0
 22 50  1  0
 23 26  1  0
 23 51  1  0
 24 52  1  0
 25 53  1  0
 25 54  1  0
 26 27  1  6
 26 55  1  0
 27 56  1  0
 27 57  1  0
 27 58  1  0
 28 29  1  0
 28 31  2  0
 29 30  2  0
 29 65  1  0
 30 32  1  0
 31 35  1  0
 31 66  1  0
 32 35  2  0
 32 36  1  0
 33 34  1  0
 33 37  1  1
 33 67  1  0
 34 36  1  0
 34 68  1  0
 34 69  1  0
 37 38  2  0
 37 39  1  0
 38 40  1  0
 38 70  1  0
 39 41  2  0
 39 71  1  0
 40 42  2  0
 41 42  1  0
 41 73  1  0
 43 75  1  0
 43 76  1  0
 43 77  1  0
M  END
> <Name>
10621

> <OBJECTID>
9223372900146544654

> <PUBCHEM_COMPOUND_CID>
10621

> <PUBCHEM_COMPOUND_CANONICALIZED>
1

> <PUBCHEM_CACTVS_COMPLEXITY>
940

> <PUBCHEM_CACTVS_HBOND_ACCEPTOR>
15

> <PUBCHEM_CACTVS_HBOND_DONOR>
8

> <PUBCHEM_CACTVS_ROTATABLE_BOND>
7

> <PUBCHEM_CACTVS_SUBSKEYS>
AAADcfB4PAAAAAAAAAAAAAAAAAAAAAAAAAA0aJECAAAAAACRQAAAGgAACAAADBSwmAMyDoAABgCIAqBSAAACCAAkIAAIiAEGiMgdNzaGNRqieWOl4BUPuQfI7PzOIAABCAAIQABAAAIQABCAAAAAAAAAAA==

> <PUBCHEM_IUPAC_OPENEYE_NAME>
(2S)-5-hydroxy-2-(3-hydroxy-4-methoxy-phenyl)-7-[(2S,3R,4S,5S,6R)-3,4,5-trihydroxy-6-[[(2R,3R,4R,5R,6S)-3,4,5-trihydroxy-6-methyl-tetrahydropyran-2-yl]oxymethyl]tetrahydropyran-2-yl]oxy-chroman-4-one

> <PUBCHEM_IUPAC_CAS_NAME>
(2S)-5-hydroxy-2-(3-hydroxy-4-methoxyphenyl)-7-[[(2S,3R,4S,5S,6R)-3,4,5-trihydroxy-6-[[(2R,3R,4R,5R,6S)-3,4,5-trihydroxy-6-methyl-2-oxanyl]oxymethyl]-2-oxanyl]oxy]-3,4-dihydro-2H-1-benzopyran-4-one

> <PUBCHEM_IUPAC_NAME_MARKUP>
(2<I>S</I>)-5-hydroxy-2-(3-hydroxy-4-methoxyphenyl)-7-[(2<I>S</I>,3<I>R</I>,4<I>S</I>,5<I>S</I>,6<I>R</I>)-3,4,5-trihydroxy-6-[[(2<I>R</I>,3<I>R</I>,4<I>R</I>,5<I>R</I>,6<I>S</I>)-3,4,5-trihydroxy-6-methyloxan-2-yl]oxymethyl]oxan-2-yl]oxy-2,3-dihydrochromen-4-one

> <PUBCHEM_IUPAC_NAME>
(2S)-5-hydroxy-2-(3-hydroxy-4-methoxyphenyl)-7-[(2S,3R,4S,5S,6R)-3,4,5-trihydroxy-6-[[(2R,3R,4R,5R,6S)-3,4,5-trihydroxy-6-methyloxan-2-yl]oxymethyl]oxan-2-yl]oxy-2,3-dihydrochromen-4-one

> <PUBCHEM_IUPAC_SYSTEMATIC_NAME>
(2S)-2-(4-methoxy-3-oxidanyl-phenyl)-7-[(2S,3R,4S,5S,6R)-6-[[(2R,3R,4R,5R,6S)-6-methyl-3,4,5-tris(oxidanyl)oxan-2-yl]oxymethyl]-3,4,5-tris(oxidanyl)oxan-2-yl]oxy-5-oxidanyl-2,3-dihydrochromen-4-one

> <PUBCHEM_IUPAC_TRADITIONAL_NAME>
(2S)-5-hydroxy-2-(3-hydroxy-4-methoxy-phenyl)-7-[(2S,3R,4S,5S,6R)-3,4,5-trihydroxy-6-[[(2R,3R,4R,5R,6S)-3,4,5-trihydroxy-6-methyl-tetrahydropyran-2-yl]oxymethyl]tetrahydropyran-2-yl]oxy-chroman-4-one

> <PUBCHEM_IUPAC_INCHI>
InChI=1S/C28H34O15/c1-10-21(32)23(34)25(36)27(40-10)39-9-19-22(33)24(35)26(37)28(43-19)41-12-6-14(30)20-15(31)8-17(42-18(20)7-12)11-3-4-16(38-2)13(29)5-11/h3-7,10,17,19,21-30,32-37H,8-9H2,1-2H3/t10-,17-,19+,21-,22+,23+,24-,25+,26+,27+,28+/m0/s1

> <PUBCHEM_IUPAC_INCHIKEY>
QUQPHWDTPGMPEX-QJBIFVCTSA-N

> <PUBCHEM_XLOGP3_AA>
-1.1

> <PUBCHEM_EXACT_MASS>
610.18977037

> <PUBCHEM_MOLECULAR_FORMULA>
C28H34O15

> <PUBCHEM_MOLECULAR_WEIGHT>
610.6

> <PUBCHEM_OPENEYE_CAN_SMILES>
CC1C(C(C(C(O1)OCC2C(C(C(C(O2)OC3=CC(=C4C(=O)CC(OC4=C3)C5=CC(=C(C=C5)OC)O)O)O)O)O)O)O)O

> <PUBCHEM_OPENEYE_ISO_SMILES>
C[C@H]1[C@@H]([C@H]([C@H]([C@@H](O1)OC[C@@H]2[C@H]([C@@H]([C@H]([C@@H](O2)OC3=CC(=C4C(=O)C[C@H](OC4=C3)C5=CC(=C(C=C5)OC)O)O)O)O)O)O)O)O

> <PUBCHEM_CACTVS_TPSA>
234

> <PUBCHEM_MONOISOTOPIC_WEIGHT>
610.18977037

> <PUBCHEM_TOTAL_CHARGE>
0

> <PUBCHEM_HEAVY_ATOM_COUNT>
43

> <PUBCHEM_ATOM_DEF_STEREO_COUNT>
11

> <PUBCHEM_ATOM_UDEF_STEREO_COUNT>
0

> <PUBCHEM_BOND_DEF_STEREO_COUNT>
0

> <PUBCHEM_BOND_UDEF_STEREO_COUNT>
0

> <PUBCHEM_ISOTOPIC_ATOM_COUNT>
0

> <PUBCHEM_COMPONENT_COUNT>
1

> <PUBCHEM_CACTVS_TAUTO_COUNT>
-1

> <PUBCHEM_COORDINATE_TYPE>
1
5
255

> <PUBCHEM_BONDANNOTATIONS>
23  10  5
16  25  5
21  2  5
26  27  6
28  29  8
28  31  8
29  30  8
30  32  8
31  35  8
32  35  8
33  37  5
37  38  8
37  39  8
38  40  8
39  41  8
17  4  6
40  42  8
41  42  8
24  5  5
18  6  5
19  7  6
20  8  6
22  9  6

$$$$
10787
  SciTegic09112316442D

 15 15  0  0  0  0            999 V2000
    4.2690    1.6550    0.0000 O   0  0
    2.5369    0.6550    0.0000 O   0  0
    6.0010   -1.3450    0.0000 O   0  0
    4.2690    0.6550    0.0000 C   0  0
    3.4030    0.1550    0.0000 C   0  0
    5.1350   -0.8450    0.0000 C   0  0
    5.1350    0.1550    0.0000 C   0  0
    3.4030   -0.8450    0.0000 C   0  0
    4.2690   -1.3450    0.0000 C   0  0
    5.6720    0.4650    0.0000 H   0  0
    2.8660   -1.1550    0.0000 H   0  0
    4.2690   -1.9650    0.0000 H   0  0
    4.8059    1.9650    0.0000 H   0  0
    2.0000    0.3450    0.0000 H   0  0
    6.0010   -1.9650    0.0000 H   0  0
  1  4  1  0
  1 13  1  0
  2  5  1  0
  2 14  1  0
  3  6  1  0
  3 15  1  0
  4  5  2  0
  4  7  1  0
  5  8  1  0
  6  7  2  0
  6  9  1  0
  7 10  1  0
  8  9  2  0
  8 11  1  0
  9 12  1  0
M  END
> <Name>
10787

> <OBJECTID>
9223372904441511950

> <PUBCHEM_COMPOUND_CID>
10787

> <PUBCHEM_COMPOUND_CANONICALIZED>
1

> <PUBCHEM_CACTVS_COMPLEXITY>
94.3

> <PUBCHEM_CACTVS_HBOND_ACCEPTOR>
3

> <PUBCHEM_CACTVS_HBOND_DONOR>
3

> <PUBCHEM_CACTVS_ROTATABLE_BOND>
0

> <PUBCHEM_CACTVS_SUBSKEYS>
AAADcYBgMAAAAAAAAAAAAAAAAAAAAAAAAAAwAAAAAAAAAAABAAAAGgAACAAACASAkAAwBoAAAgCAACBCAAACAAAgIAAIiAAGiIgJJyKCERKAcAElwBUJmAfAYAQAAQAACAAAQAACAAAQAACAAAAAAAAAAA==

> <PUBCHEM_IUPAC_OPENEYE_NAME>
benzene-1,2,4-triol

> <PUBCHEM_IUPAC_CAS_NAME>
benzene-1,2,4-triol

> <PUBCHEM_IUPAC_NAME_MARKUP>
benzene-1,2,4-triol

> <PUBCHEM_IUPAC_NAME>
benzene-1,2,4-triol

> <PUBCHEM_IUPAC_SYSTEMATIC_NAME>
benzene-1,2,4-triol

> <PUBCHEM_IUPAC_TRADITIONAL_NAME>
benzene-1,2,4-triol

> <PUBCHEM_IUPAC_INCHI>
InChI=1S/C6H6O3/c7-4-1-2-5(8)6(9)3-4/h1-3,7-9H

> <PUBCHEM_IUPAC_INCHIKEY>
GGNQRNBDZQJCCN-UHFFFAOYSA-N

> <PUBCHEM_XLOGP3>
1.5

> <PUBCHEM_EXACT_MASS>
126.031694049

> <PUBCHEM_MOLECULAR_FORMULA>
C6H6O3

> <PUBCHEM_MOLECULAR_WEIGHT>
126.11

> <PUBCHEM_OPENEYE_CAN_SMILES>
C1=CC(=C(C=C1O)O)O

> <PUBCHEM_OPENEYE_ISO_SMILES>
C1=CC(=C(C=C1O)O)O

> <PUBCHEM_CACTVS_TPSA>
60.7

> <PUBCHEM_MONOISOTOPIC_WEIGHT>
126.031694049

> <PUBCHEM_TOTAL_CHARGE>
0

> <PUBCHEM_HEAVY_ATOM_COUNT>
9

> <PUBCHEM_ATOM_DEF_STEREO_COUNT>
0

> <PUBCHEM_ATOM_UDEF_STEREO_COUNT>
0

> <PUBCHEM_BOND_DEF_STEREO_COUNT>
0

> <PUBCHEM_BOND_UDEF_STEREO_COUNT>
0

> <PUBCHEM_ISOTOPIC_ATOM_COUNT>
0

> <PUBCHEM_COMPONENT_COUNT>
1

> <PUBCHEM_CACTVS_TAUTO_COUNT>
-1

> <PUBCHEM_COORDINATE_TYPE>
1
5
255

> <PUBCHEM_BONDANNOTATIONS>
4  5  8
4  7  8
5  8  8
6  7  8
6  9  8
8  9  8

$$$$
60961
  SciTegic09112316442D

 32 34  0  0  1  0            999 V2000
    5.9405    0.8252    0.0000 O   0  0
    3.4026    1.3296    0.0000 O   0  0
    4.6844    3.0874    0.0000 O   0  0
    7.6651    2.0032    0.0000 O   0  0
    4.6783   -0.4327    0.0000 N   0  0
    4.6783   -2.0422    0.0000 N   0  0
    2.8660   -0.2375    0.0000 N   0  0
    2.0000   -1.7374    0.0000 N   0  0
    2.8660   -3.2374    0.0000 N   0  0
    4.4026    1.3278    0.0000 C   0  0  1  0  0  0
    4.9889    0.5178    0.0000 C   0  0  1  0  0  0
    4.9917    2.1358    0.0000 C   0  0  1  0  0  0
    5.9422    1.8252    0.0000 C   0  0  1  0  0  0
    6.7523    2.4116    0.0000 C   0  0
    3.7320   -0.7375    0.0000 C   0  0
    5.2619   -1.2374    0.0000 C   0  0
    3.7320   -1.7374    0.0000 C   0  0
    2.8660   -2.2374    0.0000 C   0  0
    2.0000   -0.7375    0.0000 C   0  0
    4.1220    1.8807    0.0000 H   0  0
    5.4266    0.0786    0.0000 H   0  0
    5.4309    2.5735    0.0000 H   0  0
    6.4942    1.5427    0.0000 H   0  0
    7.0999    2.9250    0.0000 H   0  0
    6.3070    2.8430    0.0000 H   0  0
    3.0935    1.8670    0.0000 H   0  0
    5.1000    3.5474    0.0000 H   0  0
    5.8819   -1.2374    0.0000 H   0  0
    8.1674    2.3668    0.0000 H   0  0
    1.4631   -0.4275    0.0000 H   0  0
    2.3291   -3.5474    0.0000 H   0  0
    3.4030   -3.5474    0.0000 H   0  0
  1 11  1  0
  1 13  1  0
 10  2  1  6
  2 26  1  0
 12  3  1  6
  3 27  1  0
  4 14  1  0
  4 29  1  0
 11  5  1  1
  5 15  1  0
  5 16  1  0
  6 16  2  0
  6 17  1  0
  7 15  2  0
  7 19  1  0
  8 18  1  0
  8 19  2  0
  9 18  1  0
  9 31  1  0
  9 32  1  0
 10 11  1  0
 10 12  1  0
 10 20  1  0
 11 21  1  0
 12 13  1  0
 12 22  1  0
 13 14  1  1
 13 23  1  0
 14 24  1  0
 14 25  1  0
 15 17  1  0
 16 28  1  0
 17 18  2  0
 19 30  1  0
M  END
> <Name>
60961

> <OBJECTID>
9223372908736479246

> <PUBCHEM_COMPOUND_CID>
60961

> <PUBCHEM_COMPOUND_CANONICALIZED>
1

> <PUBCHEM_CACTVS_COMPLEXITY>
335

> <PUBCHEM_CACTVS_HBOND_ACCEPTOR>
8

> <PUBCHEM_CACTVS_HBOND_DONOR>
4

> <PUBCHEM_CACTVS_ROTATABLE_BOND>
2

> <PUBCHEM_CACTVS_SUBSKEYS>
AAADccBzuAAAAAAAAAAAAAAAAAAAAWJAAAAsAAAAAAAAAFgB+AAAHgAQCAAACBzhlwYF8L9MFgCgAQZhZACAgC0REKABUCAoVBCDWAJAyEAeRAgPAALTACDwMAIAAAAAAAAAAAAAAAAAAAAAAAAAAAAAAA==

> <PUBCHEM_IUPAC_OPENEYE_NAME>
(2R,3R,4S,5R)-2-(6-aminopurin-9-yl)-5-(hydroxymethyl)tetrahydrofuran-3,4-diol

> <PUBCHEM_IUPAC_CAS_NAME>
(2R,3R,4S,5R)-2-(6-aminopurin-9-yl)-5-(hydroxymethyl)oxolane-3,4-diol

> <PUBCHEM_IUPAC_NAME_MARKUP>
(2<I>R</I>,3<I>R</I>,4<I>S</I>,5<I>R</I>)-2-(6-aminopurin-9-yl)-5-(hydroxymethyl)oxolane-3,4-diol

> <PUBCHEM_IUPAC_NAME>
(2R,3R,4S,5R)-2-(6-aminopurin-9-yl)-5-(hydroxymethyl)oxolane-3,4-diol

> <PUBCHEM_IUPAC_SYSTEMATIC_NAME>
(2R,3R,4S,5R)-2-(6-aminopurin-9-yl)-5-(hydroxymethyl)oxolane-3,4-diol

> <PUBCHEM_IUPAC_TRADITIONAL_NAME>
(2R,3R,4S,5R)-2-adenin-9-yl-5-methylol-tetrahydrofuran-3,4-diol

> <PUBCHEM_IUPAC_INCHI>
InChI=1S/C10H13N5O4/c11-8-5-9(13-2-12-8)15(3-14-5)10-7(18)6(17)4(1-16)19-10/h2-4,6-7,10,16-18H,1H2,(H2,11,12,13)/t4-,6-,7-,10-/m1/s1

> <PUBCHEM_IUPAC_INCHIKEY>
OIRDTQYFTABQOQ-KQYNXXCUSA-N

> <PUBCHEM_XLOGP3>
-1.1

> <PUBCHEM_EXACT_MASS>
267.09675391

> <PUBCHEM_MOLECULAR_FORMULA>
C10H13N5O4

> <PUBCHEM_MOLECULAR_WEIGHT>
267.24

> <PUBCHEM_OPENEYE_CAN_SMILES>
C1=NC(=C2C(=N1)N(C=N2)C3C(C(C(O3)CO)O)O)N

> <PUBCHEM_OPENEYE_ISO_SMILES>
C1=NC(=C2C(=N1)N(C=N2)[C@H]3[C@@H]([C@@H]([C@H](O3)CO)O)O)N

> <PUBCHEM_CACTVS_TPSA>
140

> <PUBCHEM_MONOISOTOPIC_WEIGHT>
267.09675391

> <PUBCHEM_TOTAL_CHARGE>
0

> <PUBCHEM_HEAVY_ATOM_COUNT>
19

> <PUBCHEM_ATOM_DEF_STEREO_COUNT>
4

> <PUBCHEM_ATOM_UDEF_STEREO_COUNT>
0

> <PUBCHEM_BOND_DEF_STEREO_COUNT>
0

> <PUBCHEM_BOND_UDEF_STEREO_COUNT>
0

> <PUBCHEM_ISOTOPIC_ATOM_COUNT>
0

> <PUBCHEM_COMPONENT_COUNT>
1

> <PUBCHEM_CACTVS_TAUTO_COUNT>
3

> <PUBCHEM_COORDINATE_TYPE>
1
5
255

> <PUBCHEM_BONDANNOTATIONS>
13  14  5
15  17  8
17  18  8
10  2  6
12  3  6
11  5  5
5  15  8
5  16  8
6  16  8
6  17  8
7  15  8
7  19  8
8  18  8
8  19  8

$$$$
65064
  SciTegic09112316442D

 51 54  0  0  1  0            999 V2000
    6.0682   -1.7500    0.0000 O   0  0
    7.8003    0.2500    0.0000 O   0  0
    4.3198    1.2846    0.0000 O   0  0
    2.5381   -1.7742    0.0000 O   0  0
   10.3984   -1.2500    0.0000 O   0  0
    8.6663   -4.2500    0.0000 O   0  0
    6.9343    1.7500    0.0000 O   0  0
   10.3984   -3.2500    0.0000 O   0  0
   11.2644    1.2500    0.0000 O   0  0
    9.5323    4.2500    0.0000 O   0  0
   11.2644    3.2500    0.0000 O   0  0
    6.9343   -0.2500    0.0000 C   0  0  1  0  0  0
    6.9343   -1.2500    0.0000 C   0  0  1  0  0  0
    6.0682    0.2500    0.0000 C   0  0
    5.2022   -0.2500    0.0000 C   0  0
    7.8003   -1.7500    0.0000 C   0  0
    5.2022   -1.2500    0.0000 C   0  0
    4.3083    0.2847    0.0000 C   0  0
    4.3083   -1.7847    0.0000 C   0  0
    7.8003   -2.7500    0.0000 C   0  0
    8.6663   -1.2500    0.0000 C   0  0
    3.4022   -0.2292    0.0000 C   0  0
    3.4022   -1.2708    0.0000 C   0  0
    7.8003    1.2500    0.0000 C   0  0
    9.5323   -1.7500    0.0000 C   0  0
    8.6663   -3.2500    0.0000 C   0  0
    9.5323   -2.7500    0.0000 C   0  0
    8.6663    1.7500    0.0000 C   0  0
    8.6663    2.7500    0.0000 C   0  0
    9.5323    1.2500    0.0000 C   0  0
   10.3984    1.7500    0.0000 C   0  0
    9.5323    3.2500    0.0000 C   0  0
   10.3984    2.7500    0.0000 C   0  0
    6.9343    0.3700    0.0000 H   0  0
    6.9343   -1.8700    0.0000 H   0  0
    6.4668    0.7249    0.0000 H   0  0
    5.6697    0.7249    0.0000 H   0  0
    4.3154   -2.4046    0.0000 H   0  0
    7.2634   -3.0600    0.0000 H   0  0
    8.6663   -0.6300    0.0000 H   0  0
    2.8665    0.0829    0.0000 H   0  0
    3.7865    1.6008    0.0000 H   0  0
    2.0000   -1.4662    0.0000 H   0  0
    8.1294    3.0600    0.0000 H   0  0
    9.5323    0.6300    0.0000 H   0  0
   10.9353   -1.5600    0.0000 H   0  0
    8.1294   -4.5600    0.0000 H   0  0
   10.3984   -3.8700    0.0000 H   0  0
   11.8013    1.5600    0.0000 H   0  0
    8.9954    4.5600    0.0000 H   0  0
   11.2644    3.8700    0.0000 H   0  0
  1 13  1  0
  1 17  1  0
 12  2  1  1
  2 24  1  0
  3 18  1  0
  3 42  1  0
  4 23  1  0
  4 43  1  0
  5 25  1  0
  5 46  1  0
  6 26  1  0
  6 47  1  0
  7 24  2  0
  8 27  1  0
  8 48  1  0
  9 31  1  0
  9 49  1  0
 10 32  1  0
 10 50  1  0
 11 33  1  0
 11 51  1  0
 12 13  1  0
 12 14  1  0
 12 34  1  0
 13 16  1  1
 13 35  1  0
 14 15  1  0
 14 36  1  0
 14 37  1  0
 15 17  1  0
 15 18  2  0
 16 20  2  0
 16 21  1  0
 17 19  2  0
 18 22  1  0
 19 23  1  0
 19 38  1  0
 20 26  1  0
 20 39  1  0
 21 25  2  0
 21 40  1  0
 22 23  2  0
 22 41  1  0
 24 28  1  0
 25 27  1  0
 26 27  2  0
 28 29  2  0
 28 30  1  0
 29 32  1  0
 29 44  1  0
 30 31  2  0
 30 45  1  0
 31 33  1  0
 32 33  2  0
M  END
> <Name>
65064

> <OBJECTID>
9223372913031446542

> <PUBCHEM_COMPOUND_CID>
65064

> <PUBCHEM_COMPOUND_CANONICALIZED>
1

> <PUBCHEM_CACTVS_COMPLEXITY>
667

> <PUBCHEM_CACTVS_HBOND_ACCEPTOR>
11

> <PUBCHEM_CACTVS_HBOND_DONOR>
8

> <PUBCHEM_CACTVS_ROTATABLE_BOND>
4

> <PUBCHEM_CACTVS_SUBSKEYS>
AAADceB4PAAAAAAAAAAAAAAAAAAAAAAAAAA0YMEAAAAAAACRUAAAGgAACAAADBSgmAIwDoAABgCIAiDSCAACCAAkIAAAiAEGiMgNJzKGNRqCeSGlwBULuYfK7PzOIAABCAAIQABAAAIQABCAAAAAAAAAAA==

> <PUBCHEM_IUPAC_OPENEYE_NAME>
[(2R,3R)-5,7-dihydroxy-2-(3,4,5-trihydroxyphenyl)chroman-3-yl] 3,4,5-trihydroxybenzoate

> <PUBCHEM_IUPAC_CAS_NAME>
3,4,5-trihydroxybenzoic acid [(2R,3R)-5,7-dihydroxy-2-(3,4,5-trihydroxyphenyl)-3,4-dihydro-2H-1-benzopyran-3-yl] ester

> <PUBCHEM_IUPAC_NAME_MARKUP>
[(2<I>R</I>,3<I>R</I>)-5,7-dihydroxy-2-(3,4,5-trihydroxyphenyl)-3,4-dihydro-2<I>H</I>-chromen-3-yl] 3,4,5-trihydroxybenzoate

> <PUBCHEM_IUPAC_NAME>
[(2R,3R)-5,7-dihydroxy-2-(3,4,5-trihydroxyphenyl)-3,4-dihydro-2H-chromen-3-yl] 3,4,5-trihydroxybenzoate

> <PUBCHEM_IUPAC_SYSTEMATIC_NAME>
[(2R,3R)-5,7-bis(oxidanyl)-2-[3,4,5-tris(oxidanyl)phenyl]-3,4-dihydro-2H-chromen-3-yl] 3,4,5-tris(oxidanyl)benzoate

> <PUBCHEM_IUPAC_TRADITIONAL_NAME>
3,4,5-trihydroxybenzoic acid [(2R,3R)-5,7-dihydroxy-2-(3,4,5-trihydroxyphenyl)chroman-3-yl] ester

> <PUBCHEM_IUPAC_INCHI>
InChI=1S/C22H18O11/c23-10-5-12(24)11-7-18(33-22(31)9-3-15(27)20(30)16(28)4-9)21(32-17(11)6-10)8-1-13(25)19(29)14(26)2-8/h1-6,18,21,23-30H,7H2/t18-,21-/m1/s1

> <PUBCHEM_IUPAC_INCHIKEY>
WMBWREPUVVBILR-WIYYLYMNSA-N

> <PUBCHEM_XLOGP3>
1.2

> <PUBCHEM_EXACT_MASS>
458.08491139

> <PUBCHEM_MOLECULAR_FORMULA>
C22H18O11

> <PUBCHEM_MOLECULAR_WEIGHT>
458.4

> <PUBCHEM_OPENEYE_CAN_SMILES>
C1C(C(OC2=CC(=CC(=C21)O)O)C3=CC(=C(C(=C3)O)O)O)OC(=O)C4=CC(=C(C(=C4)O)O)O

> <PUBCHEM_OPENEYE_ISO_SMILES>
C1[C@H]([C@H](OC2=CC(=CC(=C21)O)O)C3=CC(=C(C(=C3)O)O)O)OC(=O)C4=CC(=C(C(=C4)O)O)O

> <PUBCHEM_CACTVS_TPSA>
197

> <PUBCHEM_MONOISOTOPIC_WEIGHT>
458.08491139

> <PUBCHEM_TOTAL_CHARGE>
0

> <PUBCHEM_HEAVY_ATOM_COUNT>
33

> <PUBCHEM_ATOM_DEF_STEREO_COUNT>
2

> <PUBCHEM_ATOM_UDEF_STEREO_COUNT>
0

> <PUBCHEM_BOND_DEF_STEREO_COUNT>
0

> <PUBCHEM_BOND_UDEF_STEREO_COUNT>
0

> <PUBCHEM_ISOTOPIC_ATOM_COUNT>
0

> <PUBCHEM_COMPONENT_COUNT>
1

> <PUBCHEM_CACTVS_TAUTO_COUNT>
1000

> <PUBCHEM_COORDINATE_TYPE>
1
5
255

> <PUBCHEM_BONDANNOTATIONS>
13  16  5
15  17  8
15  18  8
16  20  8
16  21  8
17  19  8
18  22  8
19  23  8
12  2  5
20  26  8
21  25  8
22  23  8
25  27  8
26  27  8
28  29  8
28  30  8
29  32  8
30  31  8
31  33  8
32  33  8

$$$$
65084
  SciTegic09112316442D

 36 38  0  0  1  0            999 V2000
    6.0682   -0.2704    0.0000 O   0  0
    7.8003    1.7296    0.0000 O   0  0
    4.3198    2.7642    0.0000 O   0  0
    2.5381   -0.2945    0.0000 O   0  0
    8.6663   -2.7704    0.0000 O   0  0
   10.3984    0.2296    0.0000 O   0  0
   10.3984   -1.7704    0.0000 O   0  0
    6.9343    1.2296    0.0000 C   0  0  2  0  0  0
    6.9343    0.2296    0.0000 C   0  0  1  0  0  0
    6.0682    1.7296    0.0000 C   0  0
    5.2022    1.2296    0.0000 C   0  0
    7.8003   -0.2704    0.0000 C   0  0
    5.2022    0.2296    0.0000 C   0  0
    4.3083    1.7643    0.0000 C   0  0
    4.3083   -0.3051    0.0000 C   0  0
    8.6663    0.2296    0.0000 C   0  0
    7.8003   -1.2704    0.0000 C   0  0
    3.4022    1.2504    0.0000 C   0  0
    3.4022    0.2088    0.0000 C   0  0
    8.6663   -1.7704    0.0000 C   0  0
    9.5323   -0.2704    0.0000 C   0  0
    9.5323   -1.2704    0.0000 C   0  0
    6.9343    1.8496    0.0000 H   0  0
    6.9343   -0.3904    0.0000 H   0  0
    6.4668    2.2046    0.0000 H   0  0
    5.6697    2.2046    0.0000 H   0  0
    4.3154   -0.9250    0.0000 H   0  0
    8.6663    0.8496    0.0000 H   0  0
    7.2634   -1.5804    0.0000 H   0  0
    7.8003    2.3496    0.0000 H   0  0
    2.8665    1.5625    0.0000 H   0  0
    3.7865    3.0804    0.0000 H   0  0
    2.0000    0.0134    0.0000 H   0  0
    8.1294   -3.0804    0.0000 H   0  0
   10.3984    0.8496    0.0000 H   0  0
   10.3984   -2.3904    0.0000 H   0  0
  1  9  1  0
  1 13  1  0
  8  2  1  6
  2 30  1  0
  3 14  1  0
  3 32  1  0
  4 19  1  0
  4 33  1  0
  5 20  1  0
  5 34  1  0
  6 21  1  0
  6 35  1  0
  7 22  1  0
  7 36  1  0
  8  9  1  0
  8 10  1  0
  8 23  1  0
  9 12  1  1
  9 24  1  0
 10 11  1  0
 10 25  1  0
 10 26  1  0
 11 13  1  0
 11 14  2  0
 12 16  2  0
 12 17  1  0
 13 15  2  0
 14 18  1  0
 15 19  1  0
 15 27  1  0
 16 21  1  0
 16 28  1  0
 17 20  2  0
 17 29  1  0
 18 19  2  0
 18 31  1  0
 20 22  1  0
 21 22  2  0
M  END
> <Name>
65084

> <OBJECTID>
9223372917326413838

> <PUBCHEM_COMPOUND_CID>
65084

> <PUBCHEM_COMPOUND_CANONICALIZED>
1

> <PUBCHEM_CACTVS_COMPLEXITY>
380

> <PUBCHEM_CACTVS_HBOND_ACCEPTOR>
7

> <PUBCHEM_CACTVS_HBOND_DONOR>
6

> <PUBCHEM_CACTVS_ROTATABLE_BOND>
1

> <PUBCHEM_CACTVS_SUBSKEYS>
AAADccBwOAAAAAAAAAAAAAAAAAAAAAAAAAA0YIAAAAAAAACRQAAAGgAACAAADBSgmAIwBoAABgCAAiBCAAACCAAgIAAAiAAGiIgNNyKGMRqCeCGlwBULuAfA4PwOIAABCAAIQABAAAIQABCAAAAAAAAAAA==

> <PUBCHEM_IUPAC_OPENEYE_NAME>
(2R,3S)-2-(3,4,5-trihydroxyphenyl)chromane-3,5,7-triol

> <PUBCHEM_IUPAC_CAS_NAME>
(2R,3S)-2-(3,4,5-trihydroxyphenyl)-3,4-dihydro-2H-1-benzopyran-3,5,7-triol

> <PUBCHEM_IUPAC_NAME_MARKUP>
(2<I>R</I>,3<I>S</I>)-2-(3,4,5-trihydroxyphenyl)-3,4-dihydro-2<I>H</I>-chromene-3,5,7-triol

> <PUBCHEM_IUPAC_NAME>
(2R,3S)-2-(3,4,5-trihydroxyphenyl)-3,4-dihydro-2H-chromene-3,5,7-triol

> <PUBCHEM_IUPAC_SYSTEMATIC_NAME>
(2R,3S)-2-[3,4,5-tris(oxidanyl)phenyl]-3,4-dihydro-2H-chromene-3,5,7-triol

> <PUBCHEM_IUPAC_TRADITIONAL_NAME>
(2R,3S)-2-(3,4,5-trihydroxyphenyl)chroman-3,5,7-triol

> <PUBCHEM_IUPAC_INCHI>
InChI=1S/C15H14O7/c16-7-3-9(17)8-5-12(20)15(22-13(8)4-7)6-1-10(18)14(21)11(19)2-6/h1-4,12,15-21H,5H2/t12-,15+/m0/s1

> <PUBCHEM_IUPAC_INCHIKEY>
XMOCLSLCDHWDHP-SWLSCSKDSA-N

> <PUBCHEM_XLOGP3>
0

> <PUBCHEM_EXACT_MASS>
306.07395278

> <PUBCHEM_MOLECULAR_FORMULA>
C15H14O7

> <PUBCHEM_MOLECULAR_WEIGHT>
306.27

> <PUBCHEM_OPENEYE_CAN_SMILES>
C1C(C(OC2=CC(=CC(=C21)O)O)C3=CC(=C(C(=C3)O)O)O)O

> <PUBCHEM_OPENEYE_ISO_SMILES>
C1[C@@H]([C@H](OC2=CC(=CC(=C21)O)O)C3=CC(=C(C(=C3)O)O)O)O

> <PUBCHEM_CACTVS_TPSA>
131

> <PUBCHEM_MONOISOTOPIC_WEIGHT>
306.07395278

> <PUBCHEM_TOTAL_CHARGE>
0

> <PUBCHEM_HEAVY_ATOM_COUNT>
22

> <PUBCHEM_ATOM_DEF_STEREO_COUNT>
2

> <PUBCHEM_ATOM_UDEF_STEREO_COUNT>
0

> <PUBCHEM_BOND_DEF_STEREO_COUNT>
0

> <PUBCHEM_BOND_UDEF_STEREO_COUNT>
0

> <PUBCHEM_ISOTOPIC_ATOM_COUNT>
0

> <PUBCHEM_COMPONENT_COUNT>
1

> <PUBCHEM_CACTVS_TAUTO_COUNT>
99

> <PUBCHEM_COORDINATE_TYPE>
1
5
255

> <PUBCHEM_BONDANNOTATIONS>
11  13  8
11  14  8
12  16  8
12  17  8
13  15  8
14  18  8
15  19  8
16  21  8
17  20  8
18  19  8
8  2  6
20  22  8
21  22  8
9  12  5

$$$$
68077
  SciTegic09112316442D

 47 49  0  0  0  0            999 V2000
    6.3580   -1.0176    0.0000 O   0  0
    4.5981    2.0171    0.0000 O   0  0
    4.5981   -1.9829    0.0000 O   0  0
    2.8660    1.0171    0.0000 O   0  0
    2.8660   -0.9829    0.0000 O   0  0
    6.3465    2.0517    0.0000 O   0  0
   10.7205   -2.5171    0.0000 O   0  0
    5.4641    0.5171    0.0000 C   0  0
    5.4641   -0.4829    0.0000 C   0  0
    4.5981    1.0171    0.0000 C   0  0
    4.5981   -0.9829    0.0000 C   0  0
    3.7320    0.5171    0.0000 C   0  0
    3.7320   -0.4829    0.0000 C   0  0
    7.2641   -0.5037    0.0000 C   0  0
    6.3580    1.0517    0.0000 C   0  0
    7.2641    0.5379    0.0000 C   0  0
    8.1282   -1.0071    0.0000 C   0  0
    8.9962   -0.5104    0.0000 C   0  0
    8.1244   -2.0071    0.0000 C   0  0
    9.8602   -1.0138    0.0000 C   0  0
    8.9884   -2.5104    0.0000 C   0  0
    9.8564   -2.0137    0.0000 C   0  0
    3.7320    2.5171    0.0000 C   0  0
    3.7320   -2.4829    0.0000 C   0  0
    2.0000    0.5171    0.0000 C   0  0
    2.0000   -0.4829    0.0000 C   0  0
   11.5884   -2.0204    0.0000 C   0  0
    7.7998    0.8500    0.0000 H   0  0
    8.9985    0.1096    0.0000 H   0  0
    7.5862   -2.3150    0.0000 H   0  0
   10.3984   -0.7058    0.0000 H   0  0
    8.9860   -3.1304    0.0000 H   0  0
    4.0420    3.0540    0.0000 H   0  0
    3.1951    2.8271    0.0000 H   0  0
    3.4220    1.9801    0.0000 H   0  0
    3.4220   -1.9460    0.0000 H   0  0
    3.1951   -2.7929    0.0000 H   0  0
    4.0420   -3.0199    0.0000 H   0  0
    1.6900    1.0540    0.0000 H   0  0
    1.4631    0.2071    0.0000 H   0  0
    2.3100   -0.0199    0.0000 H   0  0
    2.3100    0.0540    0.0000 H   0  0
    1.4631   -0.1729    0.0000 H   0  0
    1.6900   -1.0199    0.0000 H   0  0
   11.8964   -2.5586    0.0000 H   0  0
   12.1266   -1.7125    0.0000 H   0  0
   11.2805   -1.4823    0.0000 H   0  0
  1  9  1  0
  1 14  1  0
  2 10  1  0
  2 23  1  0
  3 11  1  0
  3 24  1  0
  4 12  1  0
  4 25  1  0
  5 13  1  0
  5 26  1  0
  6 15  2  0
  7 22  1  0
  7 27  1  0
  8  9  2  0
  8 10  1  0
  8 15  1  0
  9 11  1  0
 10 12  2  0
 11 13  2  0
 12 13  1  0
 14 16  2  0
 14 17  1  0
 15 16  1  0
 16 28  1  0
 17 18  2  0
 17 19  1  0
 18 20  1  0
 18 29  1  0
 19 21  2  0
 19 30  1  0
 20 22  2  0
 20 31  1  0
 21 22  1  0
 21 32  1  0
 23 33  1  0
 23 34  1  0
 23 35  1  0
 24 36  1  0
 24 37  1  0
 24 38  1  0
 25 39  1  0
 25 40  1  0
 25 41  1  0
 26 42  1  0
 26 43  1  0
 26 44  1  0
 27 45  1  0
 27 46  1  0
 27 47  1  0
M  END
> <Name>
68077

> <OBJECTID>
9223372921621381134

> <PUBCHEM_COMPOUND_CID>
68077

> <PUBCHEM_COMPOUND_CANONICALIZED>
1

> <PUBCHEM_CACTVS_COMPLEXITY>
540

> <PUBCHEM_CACTVS_HBOND_ACCEPTOR>
7

> <PUBCHEM_CACTVS_HBOND_DONOR>
0

> <PUBCHEM_CACTVS_ROTATABLE_BOND>
6

> <PUBCHEM_CACTVS_SUBSKEYS>
AAADceB4OAAAAAAAAAAAAAAAAAAAAAAAAAAwYIAAAAAAAACBQAAAGgAAAAAADASAmAIyBoAABACIAqBSAAACCAAkIAAIiAEGiMgNJzaENRqCOWKl4BUKqQfK7LzOIQABCAAIQABCAAIQABCAAAAAAAAAAA==

> <PUBCHEM_IUPAC_OPENEYE_NAME>
5,6,7,8-tetramethoxy-2-(4-methoxyphenyl)chromen-4-one

> <PUBCHEM_IUPAC_CAS_NAME>
5,6,7,8-tetramethoxy-2-(4-methoxyphenyl)-1-benzopyran-4-one

> <PUBCHEM_IUPAC_NAME_MARKUP>
5,6,7,8-tetramethoxy-2-(4-methoxyphenyl)chromen-4-one

> <PUBCHEM_IUPAC_NAME>
5,6,7,8-tetramethoxy-2-(4-methoxyphenyl)chromen-4-one

> <PUBCHEM_IUPAC_SYSTEMATIC_NAME>
5,6,7,8-tetramethoxy-2-(4-methoxyphenyl)chromen-4-one

> <PUBCHEM_IUPAC_TRADITIONAL_NAME>
5,6,7,8-tetramethoxy-2-(4-methoxyphenyl)chromone

> <PUBCHEM_IUPAC_INCHI>
InChI=1S/C20H20O7/c1-22-12-8-6-11(7-9-12)14-10-13(21)15-16(23-2)18(24-3)20(26-5)19(25-4)17(15)27-14/h6-10H,1-5H3

> <PUBCHEM_IUPAC_INCHIKEY>
ULSUXBXHSYSGDT-UHFFFAOYSA-N

> <PUBCHEM_XLOGP3_AA>
3

> <PUBCHEM_EXACT_MASS>
372.12090297

> <PUBCHEM_MOLECULAR_FORMULA>
C20H20O7

> <PUBCHEM_MOLECULAR_WEIGHT>
372.4

> <PUBCHEM_OPENEYE_CAN_SMILES>
COC1=CC=C(C=C1)C2=CC(=O)C3=C(O2)C(=C(C(=C3OC)OC)OC)OC

> <PUBCHEM_OPENEYE_ISO_SMILES>
COC1=CC=C(C=C1)C2=CC(=O)C3=C(O2)C(=C(C(=C3OC)OC)OC)OC

> <PUBCHEM_CACTVS_TPSA>
72.4

> <PUBCHEM_MONOISOTOPIC_WEIGHT>
372.12090297

> <PUBCHEM_TOTAL_CHARGE>
0

> <PUBCHEM_HEAVY_ATOM_COUNT>
27

> <PUBCHEM_ATOM_DEF_STEREO_COUNT>
0

> <PUBCHEM_ATOM_UDEF_STEREO_COUNT>
0

> <PUBCHEM_BOND_DEF_STEREO_COUNT>
0

> <PUBCHEM_BOND_UDEF_STEREO_COUNT>
0

> <PUBCHEM_ISOTOPIC_ATOM_COUNT>
0

> <PUBCHEM_COMPONENT_COUNT>
1

> <PUBCHEM_CACTVS_TAUTO_COUNT>
-1

> <PUBCHEM_COORDINATE_TYPE>
1
5
255

> <PUBCHEM_BONDANNOTATIONS>
1  14  8
1  9  8
10  12  8
11  13  8
12  13  8
14  16  8
15  16  8
17  18  8
17  19  8
18  20  8
19  21  8
20  22  8
21  22  8
8  10  8
8  15  8
8  9  8
9  11  8

$$$$
72276
  SciTegic09112316442D

 35 37  0  0  1  0            999 V2000
    6.0682   -0.2704    0.0000 O   0  0
    7.8003    1.7296    0.0000 O   0  0
    4.3198    2.7642    0.0000 O   0  0
    2.5381   -0.2945    0.0000 O   0  0
    8.6663   -2.7704    0.0000 O   0  0
   10.3984   -1.7704    0.0000 O   0  0
    6.9343    1.2296    0.0000 C   0  0  1  0  0  0
    6.9343    0.2296    0.0000 C   0  0  1  0  0  0
    6.0682    1.7296    0.0000 C   0  0
    5.2022    1.2296    0.0000 C   0  0
    5.2022    0.2296    0.0000 C   0  0
    7.8003   -0.2704    0.0000 C   0  0
    4.3083    1.7643    0.0000 C   0  0
    4.3083   -0.3051    0.0000 C   0  0
    7.8003   -1.2704    0.0000 C   0  0
    8.6663    0.2296    0.0000 C   0  0
    3.4022    1.2504    0.0000 C   0  0
    3.4022    0.2088    0.0000 C   0  0
    8.6663   -1.7704    0.0000 C   0  0
    9.5323   -0.2704    0.0000 C   0  0
    9.5323   -1.2704    0.0000 C   0  0
    6.9343    1.8496    0.0000 H   0  0
    6.9343   -0.3904    0.0000 H   0  0
    6.4668    2.2046    0.0000 H   0  0
    5.6697    2.2046    0.0000 H   0  0
    4.3154   -0.9250    0.0000 H   0  0
    7.2634   -1.5804    0.0000 H   0  0
    7.8003    2.3496    0.0000 H   0  0
    8.6663    0.8496    0.0000 H   0  0
    2.8665    1.5625    0.0000 H   0  0
   10.0693    0.0396    0.0000 H   0  0
    3.7865    3.0804    0.0000 H   0  0
    2.0000    0.0134    0.0000 H   0  0
    8.1294   -3.0804    0.0000 H   0  0
   10.9353   -1.4604    0.0000 H   0  0
  1  8  1  0
  1 11  1  0
  7  2  1  1
  2 28  1  0
  3 13  1  0
  3 32  1  0
  4 18  1  0
  4 33  1  0
  5 19  1  0
  5 34  1  0
  6 21  1  0
  6 35  1  0
  7  8  1  0
  7  9  1  0
  7 22  1  0
  8 12  1  1
  8 23  1  0
  9 10  1  0
  9 24  1  0
  9 25  1  0
 10 11  1  0
 10 13  2  0
 11 14  2  0
 12 15  2  0
 12 16  1  0
 13 17  1  0
 14 18  1  0
 14 26  1  0
 15 19  1  0
 15 27  1  0
 16 20  2  0
 16 29  1  0
 17 18  2  0
 17 30  1  0
 19 21  2  0
 20 21  1  0
 20 31  1  0
M  END
> <Name>
72276

> <OBJECTID>
9223372925916348430

> <PUBCHEM_COMPOUND_CID>
72276

> <PUBCHEM_COMPOUND_CANONICALIZED>
1

> <PUBCHEM_CACTVS_COMPLEXITY>
364

> <PUBCHEM_CACTVS_HBOND_ACCEPTOR>
6

> <PUBCHEM_CACTVS_HBOND_DONOR>
5

> <PUBCHEM_CACTVS_ROTATABLE_BOND>
1

> <PUBCHEM_CACTVS_SUBSKEYS>
AAADccBwOAAAAAAAAAAAAAAAAAAAAAAAAAA0YIAAAAAAAACRQAAAGgAACAAADBSgmAIwBoAABgCAAiBCAAACCAAgIAAIiAAGiIgNNyKGMRqCeCGlwBULuAfA4PwOIAABCAAIQABAAAIQABCAAAAAAAAAAA==

> <PUBCHEM_IUPAC_OPENEYE_NAME>
(2R,3R)-2-(3,4-dihydroxyphenyl)chromane-3,5,7-triol

> <PUBCHEM_IUPAC_CAS_NAME>
(2R,3R)-2-(3,4-dihydroxyphenyl)-3,4-dihydro-2H-1-benzopyran-3,5,7-triol

> <PUBCHEM_IUPAC_NAME_MARKUP>
(2<I>R</I>,3<I>R</I>)-2-(3,4-dihydroxyphenyl)-3,4-dihydro-2<I>H</I>-chromene-3,5,7-triol

> <PUBCHEM_IUPAC_NAME>
(2R,3R)-2-(3,4-dihydroxyphenyl)-3,4-dihydro-2H-chromene-3,5,7-triol

> <PUBCHEM_IUPAC_SYSTEMATIC_NAME>
(2R,3R)-2-[3,4-bis(oxidanyl)phenyl]-3,4-dihydro-2H-chromene-3,5,7-triol

> <PUBCHEM_IUPAC_TRADITIONAL_NAME>
(2R,3R)-2-(3,4-dihydroxyphenyl)chroman-3,5,7-triol

> <PUBCHEM_IUPAC_INCHI>
InChI=1S/C15H14O6/c16-8-4-11(18)9-6-13(20)15(21-14(9)5-8)7-1-2-10(17)12(19)3-7/h1-5,13,15-20H,6H2/t13-,15-/m1/s1

> <PUBCHEM_IUPAC_INCHIKEY>
PFTAWBLQPZVEMU-UKRRQHHQSA-N

> <PUBCHEM_XLOGP3>
0.4

> <PUBCHEM_EXACT_MASS>
290.07903816

> <PUBCHEM_MOLECULAR_FORMULA>
C15H14O6

> <PUBCHEM_MOLECULAR_WEIGHT>
290.27

> <PUBCHEM_OPENEYE_CAN_SMILES>
C1C(C(OC2=CC(=CC(=C21)O)O)C3=CC(=C(C=C3)O)O)O

> <PUBCHEM_OPENEYE_ISO_SMILES>
C1[C@H]([C@H](OC2=CC(=CC(=C21)O)O)C3=CC(=C(C=C3)O)O)O

> <PUBCHEM_CACTVS_TPSA>
110

> <PUBCHEM_MONOISOTOPIC_WEIGHT>
290.07903816

> <PUBCHEM_TOTAL_CHARGE>
0

> <PUBCHEM_HEAVY_ATOM_COUNT>
21

> <PUBCHEM_ATOM_DEF_STEREO_COUNT>
2

> <PUBCHEM_ATOM_UDEF_STEREO_COUNT>
0

> <PUBCHEM_BOND_DEF_STEREO_COUNT>
0

> <PUBCHEM_BOND_UDEF_STEREO_COUNT>
0

> <PUBCHEM_ISOTOPIC_ATOM_COUNT>
0

> <PUBCHEM_COMPONENT_COUNT>
1

> <PUBCHEM_CACTVS_TAUTO_COUNT>
-1

> <PUBCHEM_COORDINATE_TYPE>
1
5
255

> <PUBCHEM_BONDANNOTATIONS>
10  11  8
10  13  8
11  14  8
12  15  8
12  16  8
13  17  8
14  18  8
15  19  8
16  20  8
17  18  8
19  21  8
7  2  5
20  21  8
8  12  5

$$$$
72277
  SciTegic09112316442D

 36 38  0  0  1  0            999 V2000
    6.0682   -0.2704    0.0000 O   0  0
    7.8003    1.7296    0.0000 O   0  0
    4.3198    2.7642    0.0000 O   0  0
    2.5381   -0.2945    0.0000 O   0  0
    8.6663   -2.7704    0.0000 O   0  0
   10.3984    0.2296    0.0000 O   0  0
   10.3984   -1.7704    0.0000 O   0  0
    6.9343    1.2296    0.0000 C   0  0  1  0  0  0
    6.9343    0.2296    0.0000 C   0  0  1  0  0  0
    6.0682    1.7296    0.0000 C   0  0
    5.2022    1.2296    0.0000 C   0  0
    7.8003   -0.2704    0.0000 C   0  0
    5.2022    0.2296    0.0000 C   0  0
    4.3083    1.7643    0.0000 C   0  0
    4.3083   -0.3051    0.0000 C   0  0
    8.6663    0.2296    0.0000 C   0  0
    7.8003   -1.2704    0.0000 C   0  0
    3.4022    1.2504    0.0000 C   0  0
    3.4022    0.2088    0.0000 C   0  0
    8.6663   -1.7704    0.0000 C   0  0
    9.5323   -0.2704    0.0000 C   0  0
    9.5323   -1.2704    0.0000 C   0  0
    6.9343    1.8496    0.0000 H   0  0
    6.9343   -0.3904    0.0000 H   0  0
    6.4668    2.2046    0.0000 H   0  0
    5.6697    2.2046    0.0000 H   0  0
    4.3154   -0.9250    0.0000 H   0  0
    8.6663    0.8496    0.0000 H   0  0
    7.2634   -1.5804    0.0000 H   0  0
    7.8003    2.3496    0.0000 H   0  0
    2.8665    1.5625    0.0000 H   0  0
    3.7865    3.0804    0.0000 H   0  0
    2.0000    0.0134    0.0000 H   0  0
    8.1294   -3.0804    0.0000 H   0  0
   10.3984    0.8496    0.0000 H   0  0
   10.3984   -2.3904    0.0000 H   0  0
  1  9  1  0
  1 13  1  0
  8  2  1  1
  2 30  1  0
  3 14  1  0
  3 32  1  0
  4 19  1  0
  4 33  1  0
  5 20  1  0
  5 34  1  0
  6 21  1  0
  6 35  1  0
  7 22  1  0
  7 36  1  0
  8  9  1  0
  8 10  1  0
  8 23  1  0
  9 12  1  1
  9 24  1  0
 10 11  1  0
 10 25  1  0
 10 26  1  0
 11 13  1  0
 11 14  2  0
 12 16  2  0
 12 17  1  0
 13 15  2  0
 14 18  1  0
 15 19  1  0
 15 27  1  0
 16 21  1  0
 16 28  1  0
 17 20  2  0
 17 29  1  0
 18 19  2  0
 18 31  1  0
 20 22  1  0
 21 22  2  0
M  END
> <Name>
72277

> <OBJECTID>
9223372930211315726

> <PUBCHEM_COMPOUND_CID>
72277

> <PUBCHEM_COMPOUND_CANONICALIZED>
1

> <PUBCHEM_CACTVS_COMPLEXITY>
380

> <PUBCHEM_CACTVS_HBOND_ACCEPTOR>
7

> <PUBCHEM_CACTVS_HBOND_DONOR>
6

> <PUBCHEM_CACTVS_ROTATABLE_BOND>
1

> <PUBCHEM_CACTVS_SUBSKEYS>
AAADccBwOAAAAAAAAAAAAAAAAAAAAAAAAAA0YIAAAAAAAACRQAAAGgAACAAADBSgmAIwBoAABgCAAiBCAAACCAAgIAAAiAAGiIgNNyKGMRqCeCGlwBULuAfA4PwOIAABCAAIQABAAAIQABCAAAAAAAAAAA==

> <PUBCHEM_IUPAC_OPENEYE_NAME>
(2R,3R)-2-(3,4,5-trihydroxyphenyl)chromane-3,5,7-triol

> <PUBCHEM_IUPAC_CAS_NAME>
(2R,3R)-2-(3,4,5-trihydroxyphenyl)-3,4-dihydro-2H-1-benzopyran-3,5,7-triol

> <PUBCHEM_IUPAC_NAME_MARKUP>
(2<I>R</I>,3<I>R</I>)-2-(3,4,5-trihydroxyphenyl)-3,4-dihydro-2<I>H</I>-chromene-3,5,7-triol

> <PUBCHEM_IUPAC_NAME>
(2R,3R)-2-(3,4,5-trihydroxyphenyl)-3,4-dihydro-2H-chromene-3,5,7-triol

> <PUBCHEM_IUPAC_SYSTEMATIC_NAME>
(2R,3R)-2-[3,4,5-tris(oxidanyl)phenyl]-3,4-dihydro-2H-chromene-3,5,7-triol

> <PUBCHEM_IUPAC_TRADITIONAL_NAME>
(2R,3R)-2-(3,4,5-trihydroxyphenyl)chroman-3,5,7-triol

> <PUBCHEM_IUPAC_INCHI>
InChI=1S/C15H14O7/c16-7-3-9(17)8-5-12(20)15(22-13(8)4-7)6-1-10(18)14(21)11(19)2-6/h1-4,12,15-21H,5H2/t12-,15-/m1/s1

> <PUBCHEM_IUPAC_INCHIKEY>
XMOCLSLCDHWDHP-IUODEOHRSA-N

> <PUBCHEM_XLOGP3>
0

> <PUBCHEM_EXACT_MASS>
306.07395278

> <PUBCHEM_MOLECULAR_FORMULA>
C15H14O7

> <PUBCHEM_MOLECULAR_WEIGHT>
306.27

> <PUBCHEM_OPENEYE_CAN_SMILES>
C1C(C(OC2=CC(=CC(=C21)O)O)C3=CC(=C(C(=C3)O)O)O)O

> <PUBCHEM_OPENEYE_ISO_SMILES>
C1[C@H]([C@H](OC2=CC(=CC(=C21)O)O)C3=CC(=C(C(=C3)O)O)O)O

> <PUBCHEM_CACTVS_TPSA>
131

> <PUBCHEM_MONOISOTOPIC_WEIGHT>
306.07395278

> <PUBCHEM_TOTAL_CHARGE>
0

> <PUBCHEM_HEAVY_ATOM_COUNT>
22

> <PUBCHEM_ATOM_DEF_STEREO_COUNT>
2

> <PUBCHEM_ATOM_UDEF_STEREO_COUNT>
0

> <PUBCHEM_BOND_DEF_STEREO_COUNT>
0

> <PUBCHEM_BOND_UDEF_STEREO_COUNT>
0

> <PUBCHEM_ISOTOPIC_ATOM_COUNT>
0

> <PUBCHEM_COMPONENT_COUNT>
1

> <PUBCHEM_CACTVS_TAUTO_COUNT>
-1

> <PUBCHEM_COORDINATE_TYPE>
1
5
255

> <PUBCHEM_BONDANNOTATIONS>
11  13  8
11  14  8
12  16  8
12  17  8
13  15  8
14  18  8
15  19  8
16  21  8
17  20  8
18  19  8
8  2  5
20  22  8
21  22  8
9  12  5

$$$$
72281
  SciTegic09112316442D

 36 38  0  0  1  0            999 V2000
    6.0682   -0.2704    0.0000 O   0  0
    6.0682    2.7296    0.0000 O   0  0
    4.3198    2.7642    0.0000 O   0  0
   10.3984   -1.7704    0.0000 O   0  0
    8.6663   -2.7704    0.0000 O   0  0
    2.5381   -0.2945    0.0000 O   0  0
    6.9343    0.2296    0.0000 C   0  0  1  0  0  0
    6.9343    1.2296    0.0000 C   0  0
    7.8003   -0.2704    0.0000 C   0  0
    5.2022    1.2296    0.0000 C   0  0
    6.0682    1.7296    0.0000 C   0  0
    5.2022    0.2296    0.0000 C   0  0
    7.8003   -1.2704    0.0000 C   0  0
    8.6663    0.2296    0.0000 C   0  0
    4.3083    1.7643    0.0000 C   0  0
    4.3083   -0.3051    0.0000 C   0  0
    8.6663   -1.7704    0.0000 C   0  0
    3.4022    1.2504    0.0000 C   0  0
    3.4022    0.2088    0.0000 C   0  0
    9.5323   -0.2704    0.0000 C   0  0
    9.5323   -1.2704    0.0000 C   0  0
   11.2644   -1.2704    0.0000 C   0  0
    6.9343   -0.3904    0.0000 H   0  0
    7.5449    1.1220    0.0000 H   0  0
    7.1463    1.8122    0.0000 H   0  0
    7.2634   -1.5804    0.0000 H   0  0
    8.6663    0.8496    0.0000 H   0  0
    4.3154   -0.9250    0.0000 H   0  0
    2.8665    1.5625    0.0000 H   0  0
   10.0693    0.0396    0.0000 H   0  0
    3.7865    3.0804    0.0000 H   0  0
    8.1294   -3.0804    0.0000 H   0  0
    2.0000    0.0134    0.0000 H   0  0
   11.5744   -1.8073    0.0000 H   0  0
   11.8013   -0.9604    0.0000 H   0  0
   10.9544   -0.7335    0.0000 H   0  0
  1  7  1  0
  1 12  1  0
  2 11  2  0
  3 15  1  0
  3 31  1  0
  4 21  1  0
  4 22  1  0
  5 17  1  0
  5 32  1  0
  6 19  1  0
  6 33  1  0
  7  8  1  0
  7  9  1  1
  7 23  1  0
  8 11  1  0
  8 24  1  0
  8 25  1  0
  9 13  2  0
  9 14  1  0
 10 11  1  0
 10 12  1  0
 10 15  2  0
 12 16  2  0
 13 17  1  0
 13 26  1  0
 14 20  2  0
 14 27  1  0
 15 18  1  0
 16 19  1  0
 16 28  1  0
 17 21  2  0
 18 19  2  0
 18 29  1  0
 20 21  1  0
 20 30  1  0
 22 34  1  0
 22 35  1  0
 22 36  1  0
M  END
> <Name>
72281

> <OBJECTID>
9223372934506283022

> <PUBCHEM_COMPOUND_CID>
72281

> <PUBCHEM_COMPOUND_CANONICALIZED>
1

> <PUBCHEM_CACTVS_COMPLEXITY>
413

> <PUBCHEM_CACTVS_HBOND_ACCEPTOR>
6

> <PUBCHEM_CACTVS_HBOND_DONOR>
3

> <PUBCHEM_CACTVS_ROTATABLE_BOND>
2

> <PUBCHEM_CACTVS_SUBSKEYS>
AAADccB4OAAAAAAAAAAAAAAAAAAAAAAAAAA0YIAAAAAAAACRQAAAGgAACAAADBSgmAIyBoAABgCIAqBSAAACCAAkIAAIiAEGiMgNJzaGNRqCeWOl4BULuQfI7PzOIAABCAAIQABAAAIQABCAAAAAAAAAAA==

> <PUBCHEM_IUPAC_OPENEYE_NAME>
(2S)-5,7-dihydroxy-2-(3-hydroxy-4-methoxy-phenyl)chroman-4-one

> <PUBCHEM_IUPAC_CAS_NAME>
(2S)-5,7-dihydroxy-2-(3-hydroxy-4-methoxyphenyl)-3,4-dihydro-2H-1-benzopyran-4-one

> <PUBCHEM_IUPAC_NAME_MARKUP>
(2<I>S</I>)-5,7-dihydroxy-2-(3-hydroxy-4-methoxyphenyl)-2,3-dihydrochromen-4-one

> <PUBCHEM_IUPAC_NAME>
(2S)-5,7-dihydroxy-2-(3-hydroxy-4-methoxyphenyl)-2,3-dihydrochromen-4-one

> <PUBCHEM_IUPAC_SYSTEMATIC_NAME>
(2S)-2-(4-methoxy-3-oxidanyl-phenyl)-5,7-bis(oxidanyl)-2,3-dihydrochromen-4-one

> <PUBCHEM_IUPAC_TRADITIONAL_NAME>
(2S)-5,7-dihydroxy-2-(3-hydroxy-4-methoxy-phenyl)chroman-4-one

> <PUBCHEM_IUPAC_INCHI>
InChI=1S/C16H14O6/c1-21-13-3-2-8(4-10(13)18)14-7-12(20)16-11(19)5-9(17)6-15(16)22-14/h2-6,14,17-19H,7H2,1H3/t14-/m0/s1

> <PUBCHEM_IUPAC_INCHIKEY>
AIONOLUJZLIMTK-AWEZNQCLSA-N

> <PUBCHEM_XLOGP3_AA>
2.4

> <PUBCHEM_EXACT_MASS>
302.07903816

> <PUBCHEM_MOLECULAR_FORMULA>
C16H14O6

> <PUBCHEM_MOLECULAR_WEIGHT>
302.28

> <PUBCHEM_OPENEYE_CAN_SMILES>
COC1=C(C=C(C=C1)C2CC(=O)C3=C(C=C(C=C3O2)O)O)O

> <PUBCHEM_OPENEYE_ISO_SMILES>
COC1=C(C=C(C=C1)[C@@H]2CC(=O)C3=C(C=C(C=C3O2)O)O)O

> <PUBCHEM_CACTVS_TPSA>
96.2

> <PUBCHEM_MONOISOTOPIC_WEIGHT>
302.07903816

> <PUBCHEM_TOTAL_CHARGE>
0

> <PUBCHEM_HEAVY_ATOM_COUNT>
22

> <PUBCHEM_ATOM_DEF_STEREO_COUNT>
1

> <PUBCHEM_ATOM_UDEF_STEREO_COUNT>
0

> <PUBCHEM_BOND_DEF_STEREO_COUNT>
0

> <PUBCHEM_BOND_UDEF_STEREO_COUNT>
0

> <PUBCHEM_ISOTOPIC_ATOM_COUNT>
0

> <PUBCHEM_COMPONENT_COUNT>
1

> <PUBCHEM_CACTVS_TAUTO_COUNT>
-1

> <PUBCHEM_COORDINATE_TYPE>
1
5
255

> <PUBCHEM_BONDANNOTATIONS>
10  12  8
10  15  8
12  16  8
13  17  8
14  20  8
15  18  8
16  19  8
17  21  8
18  19  8
20  21  8
7  9  5
9  13  8
9  14  8

$$$$
72344
  SciTegic09112316442D

 51 53  0  0  0  0            999 V2000
    6.3580   -0.2693    0.0000 O   0  0
    4.5981    2.7654    0.0000 O   0  0
    4.5981   -1.2346    0.0000 O   0  0
    2.8660    1.7654    0.0000 O   0  0
    2.8660   -0.2346    0.0000 O   0  0
    6.3465    2.8000    0.0000 O   0  0
    8.9846   -2.7621    0.0000 O   0  0
   10.7205   -1.7688    0.0000 O   0  0
    5.4641    1.2654    0.0000 C   0  0
    5.4641    0.2654    0.0000 C   0  0
    4.5981    1.7654    0.0000 C   0  0
    4.5981   -0.2346    0.0000 C   0  0
    7.2641    0.2446    0.0000 C   0  0
    3.7320    1.2654    0.0000 C   0  0
    3.7320    0.2654    0.0000 C   0  0
    6.3580    1.8001    0.0000 C   0  0
    8.1282   -0.2587    0.0000 C   0  0
    7.2641    1.2862    0.0000 C   0  0
    8.1244   -1.2587    0.0000 C   0  0
    8.9962    0.2379    0.0000 C   0  0
    8.9884   -1.7621    0.0000 C   0  0
    9.8564   -1.2654    0.0000 C   0  0
    9.8602   -0.2654    0.0000 C   0  0
    3.7320    3.2654    0.0000 C   0  0
    3.7320   -1.7346    0.0000 C   0  0
    2.0000    1.2654    0.0000 C   0  0
    2.0000    0.2654    0.0000 C   0  0
    9.8487   -3.2654    0.0000 C   0  0
   11.5884   -1.2721    0.0000 C   0  0
    7.7998    1.5983    0.0000 H   0  0
    7.5862   -1.5667    0.0000 H   0  0
    8.9985    0.8579    0.0000 H   0  0
   10.3984    0.0425    0.0000 H   0  0
    4.0420    3.8023    0.0000 H   0  0
    3.1951    3.5754    0.0000 H   0  0
    3.4220    2.7285    0.0000 H   0  0
    3.4220   -1.1977    0.0000 H   0  0
    3.1951   -2.0446    0.0000 H   0  0
    4.0420   -2.2715    0.0000 H   0  0
    1.6900    1.8023    0.0000 H   0  0
    1.4631    0.9554    0.0000 H   0  0
    2.3100    0.7285    0.0000 H   0  0
    2.3100    0.8023    0.0000 H   0  0
    1.4631    0.5754    0.0000 H   0  0
    1.6900   -0.2715    0.0000 H   0  0
    9.5366   -3.8011    0.0000 H   0  0
   10.3844   -3.5775    0.0000 H   0  0
   10.1607   -2.7297    0.0000 H   0  0
   11.8964   -1.8102    0.0000 H   0  0
   12.1266   -0.9642    0.0000 H   0  0
   11.2805   -0.7340    0.0000 H   0  0
  1 10  1  0
  1 13  1  0
  2 11  1  0
  2 24  1  0
  3 12  1  0
  3 25  1  0
  4 14  1  0
  4 26  1  0
  5 15  1  0
  5 27  1  0
  6 16  2  0
  7 21  1  0
  7 28  1  0
  8 22  1  0
  8 29  1  0
  9 10  2  0
  9 11  1  0
  9 16  1  0
 10 12  1  0
 11 14  2  0
 12 15  2  0
 13 17  1  0
 13 18  2  0
 14 15  1  0
 16 18  1  0
 17 19  2  0
 17 20  1  0
 18 30  1  0
 19 21  1  0
 19 31  1  0
 20 23  2  0
 20 32  1  0
 21 22  2  0
 22 23  1  0
 23 33  1  0
 24 34  1  0
 24 35  1  0
 24 36  1  0
 25 37  1  0
 25 38  1  0
 25 39  1  0
 26 40  1  0
 26 41  1  0
 26 42  1  0
 27 43  1  0
 27 44  1  0
 27 45  1  0
 28 46  1  0
 28 47  1  0
 28 48  1  0
 29 49  1  0
 29 50  1  0
 29 51  1  0
M  END
> <Name>
72344

> <OBJECTID>
9223372938801250318

> <PUBCHEM_COMPOUND_CID>
72344

> <PUBCHEM_COMPOUND_CANONICALIZED>
1

> <PUBCHEM_CACTVS_COMPLEXITY>
593

> <PUBCHEM_CACTVS_HBOND_ACCEPTOR>
8

> <PUBCHEM_CACTVS_HBOND_DONOR>
0

> <PUBCHEM_CACTVS_ROTATABLE_BOND>
7

> <PUBCHEM_CACTVS_SUBSKEYS>
AAADceB4PAAAAAAAAAAAAAAAAAAAAAAAAAAwYIAAAAAAAACBQAAAGgAAAAAADASAmAIyBoAABACIAqBSAAACCAAkIAAIiAEGiMgNJzaENRqCOWKl4BUKqQfK7LzOIQABCAAIQABCAAIQABCAAAAAAAAAAA==

> <PUBCHEM_IUPAC_OPENEYE_NAME>
2-(3,4-dimethoxyphenyl)-5,6,7,8-tetramethoxy-chromen-4-one

> <PUBCHEM_IUPAC_CAS_NAME>
2-(3,4-dimethoxyphenyl)-5,6,7,8-tetramethoxy-1-benzopyran-4-one

> <PUBCHEM_IUPAC_NAME_MARKUP>
2-(3,4-dimethoxyphenyl)-5,6,7,8-tetramethoxychromen-4-one

> <PUBCHEM_IUPAC_NAME>
2-(3,4-dimethoxyphenyl)-5,6,7,8-tetramethoxychromen-4-one

> <PUBCHEM_IUPAC_SYSTEMATIC_NAME>
2-(3,4-dimethoxyphenyl)-5,6,7,8-tetramethoxy-chromen-4-one

> <PUBCHEM_IUPAC_TRADITIONAL_NAME>
2-(3,4-dimethoxyphenyl)-5,6,7,8-tetramethoxy-chromone

> <PUBCHEM_IUPAC_INCHI>
InChI=1S/C21H22O8/c1-23-13-8-7-11(9-15(13)24-2)14-10-12(22)16-17(25-3)19(26-4)21(28-6)20(27-5)18(16)29-14/h7-10H,1-6H3

> <PUBCHEM_IUPAC_INCHIKEY>
MRIAQLRQZPPODS-UHFFFAOYSA-N

> <PUBCHEM_XLOGP3_AA>
3

> <PUBCHEM_EXACT_MASS>
402.13146766

> <PUBCHEM_MOLECULAR_FORMULA>
C21H22O8

> <PUBCHEM_MOLECULAR_WEIGHT>
402.4

> <PUBCHEM_OPENEYE_CAN_SMILES>
COC1=C(C=C(C=C1)C2=CC(=O)C3=C(O2)C(=C(C(=C3OC)OC)OC)OC)OC

> <PUBCHEM_OPENEYE_ISO_SMILES>
COC1=C(C=C(C=C1)C2=CC(=O)C3=C(O2)C(=C(C(=C3OC)OC)OC)OC)OC

> <PUBCHEM_CACTVS_TPSA>
81.7

> <PUBCHEM_MONOISOTOPIC_WEIGHT>
402.13146766

> <PUBCHEM_TOTAL_CHARGE>
0

> <PUBCHEM_HEAVY_ATOM_COUNT>
29

> <PUBCHEM_ATOM_DEF_STEREO_COUNT>
0

> <PUBCHEM_ATOM_UDEF_STEREO_COUNT>
0

> <PUBCHEM_BOND_DEF_STEREO_COUNT>
0

> <PUBCHEM_BOND_UDEF_STEREO_COUNT>
0

> <PUBCHEM_ISOTOPIC_ATOM_COUNT>
0

> <PUBCHEM_COMPONENT_COUNT>
1

> <PUBCHEM_CACTVS_TAUTO_COUNT>
1

> <PUBCHEM_COORDINATE_TYPE>
1
5
255

> <PUBCHEM_BONDANNOTATIONS>
1  10  8
1  13  8
10  12  8
11  14  8
12  15  8
13  18  8
14  15  8
16  18  8
17  19  8
17  20  8
19  21  8
20  23  8
21  22  8
22  23  8
9  10  8
9  11  8
9  16  8

$$$$
72625
  SciTegic09112316442D

 56 56  0  0  1  0            999 V2000
    4.9641    1.3840    0.0000 O   0  0
    3.7320    0.5179    0.0000 O   0  0
    5.4641   -2.4820    0.0000 O   0  0
    7.1962    0.5179    0.0000 O   0  0
    8.0622   -0.9821    0.0000 O   0  0
    5.4641    0.5179    0.0000 C   0  0  2  0  0  0
    4.5981    0.0179    0.0000 C   0  0
    5.9641    1.3840    0.0000 C   0  0
    6.3301    0.0179    0.0000 C   0  0
    4.5981   -0.9821    0.0000 C   0  0
    6.3301   -0.9821    0.0000 C   0  0
    5.4641   -1.4820    0.0000 C   0  0
    7.1962   -2.4820    0.0000 C   0  0
    7.1962   -1.4820    0.0000 C   0  0
    8.0622   -2.9820    0.0000 C   0  0
    3.7320   -1.4820    0.0000 C   0  0
    5.4641    2.2500    0.0000 C   0  0
    8.0622   -3.9820    0.0000 C   0  0
    8.9282   -2.4820    0.0000 C   0  0
    3.7320   -2.4820    0.0000 C   0  0
    5.9641    3.1160    0.0000 C   0  0
    2.8660   -2.9820    0.0000 C   0  0
    5.4641    3.9820    0.0000 C   0  0
    6.9641    3.1160    0.0000 C   0  0
    2.8660   -3.9820    0.0000 C   0  0
    2.0000   -2.4820    0.0000 C   0  0
    6.4390    0.9854    0.0000 H   0  0
    6.4390    1.7825    0.0000 H   0  0
    6.5856   -2.3744    0.0000 H   0  0
    6.9841   -3.0647    0.0000 H   0  0
    8.0622   -2.3620    0.0000 H   0  0
    3.5200   -0.8994    0.0000 H   0  0
    3.1215   -1.5897    0.0000 H   0  0
    4.8441    2.2500    0.0000 H   0  0
    4.3441    1.3840    0.0000 H   0  0
    7.4422   -3.9820    0.0000 H   0  0
    8.0622   -4.6020    0.0000 H   0  0
    8.6822   -3.9820    0.0000 H   0  0
    9.2382   -3.0190    0.0000 H   0  0
    9.4651   -2.1720    0.0000 H   0  0
    8.6182   -1.9451    0.0000 H   0  0
    4.2690   -2.7920    0.0000 H   0  0
    3.1951    0.2079    0.0000 H   0  0
    4.9272   -2.7920    0.0000 H   0  0
    6.0010    4.2920    0.0000 H   0  0
    5.1541    4.5190    0.0000 H   0  0
    4.9272    3.6720    0.0000 H   0  0
    6.9641    2.4960    0.0000 H   0  0
    7.5841    3.1160    0.0000 H   0  0
    6.9641    3.7360    0.0000 H   0  0
    2.2460   -3.9820    0.0000 H   0  0
    2.8660   -4.6020    0.0000 H   0  0
    3.4860   -3.9820    0.0000 H   0  0
    2.3100   -1.9451    0.0000 H   0  0
    1.4631   -2.1720    0.0000 H   0  0
    1.6900   -3.0190    0.0000 H   0  0
  6  1  1  6
  1 35  1  0
  2  7  1  0
  2 43  1  0
  3 12  1  0
  3 44  1  0
  4  9  2  0
  5 14  2  0
  6  7  1  0
  6  8  1  0
  6  9  1  0
  7 10  2  0
  8 17  1  0
  8 27  1  0
  8 28  1  0
  9 11  1  0
 10 12  1  0
 10 16  1  0
 11 12  2  0
 11 14  1  0
 13 14  1  0
 13 15  1  0
 13 29  1  0
 13 30  1  0
 15 18  1  0
 15 19  1  0
 15 31  1  0
 16 20  1  0
 16 32  1  0
 16 33  1  0
 17 21  2  0
 17 34  1  0
 18 36  1  0
 18 37  1  0
 18 38  1  0
 19 39  1  0
 19 40  1  0
 19 41  1  0
 20 22  2  0
 20 42  1  0
 21 23  1  0
 21 24  1  0
 22 25  1  0
 22 26  1  0
 23 45  1  0
 23 46  1  0
 23 47  1  0
 24 48  1  0
 24 49  1  0
 24 50  1  0
 25 51  1  0
 25 52  1  0
 25 53  1  0
 26 54  1  0
 26 55  1  0
 26 56  1  0
M  END
> <Name>
72625

> <OBJECTID>
9223372943096217614

> <PUBCHEM_COMPOUND_CID>
72625

> <PUBCHEM_COMPOUND_CANONICALIZED>
1

> <PUBCHEM_CACTVS_COMPLEXITY>
711

> <PUBCHEM_CACTVS_HBOND_ACCEPTOR>
5

> <PUBCHEM_CACTVS_HBOND_DONOR>
3

> <PUBCHEM_CACTVS_ROTATABLE_BOND>
7

> <PUBCHEM_CACTVS_SUBSKEYS>
AAADceB4OAAAAAAAAAAAAAAAAAAAAAAAAAAgAAAAAAAAAAAAAAAAGgAACAAADUSAgAACAAAAAgCIAqBSAAIAAAAgIAAACAFAAEgJBBYIAQAAUAAE4AAJkQOKzOAOAAAAAAAAAAAAAAAAAAAAAAAAAAAAAA==

> <PUBCHEM_IUPAC_OPENEYE_NAME>
(6S)-3,5,6-trihydroxy-2-(3-methylbutanoyl)-4,6-bis(3-methylbut-2-enyl)cyclohexa-2,4-dien-1-one

> <PUBCHEM_IUPAC_CAS_NAME>
(6S)-3,5,6-trihydroxy-4,6-bis(3-methylbut-2-enyl)-2-(3-methyl-1-oxobutyl)-1-cyclohexa-2,4-dienone

> <PUBCHEM_IUPAC_NAME_MARKUP>
(6<I>S</I>)-3,5,6-trihydroxy-2-(3-methylbutanoyl)-4,6-bis(3-methylbut-2-enyl)cyclohexa-2,4-dien-1-one

> <PUBCHEM_IUPAC_NAME>
(6S)-3,5,6-trihydroxy-2-(3-methylbutanoyl)-4,6-bis(3-methylbut-2-enyl)cyclohexa-2,4-dien-1-one

> <PUBCHEM_IUPAC_SYSTEMATIC_NAME>
(6S)-2-(3-methylbutanoyl)-4,6-bis(3-methylbut-2-enyl)-3,5,6-tris(oxidanyl)cyclohexa-2,4-dien-1-one

> <PUBCHEM_IUPAC_TRADITIONAL_NAME>
(6S)-3,5,6-trihydroxy-2-isovaleryl-4,6-bis(3-methylbut-2-enyl)cyclohexa-2,4-dien-1-one

> <PUBCHEM_IUPAC_INCHI>
InChI=1S/C21H30O5/c1-12(2)7-8-15-18(23)17(16(22)11-14(5)6)20(25)21(26,19(15)24)10-9-13(3)4/h7,9,14,23-24,26H,8,10-11H2,1-6H3/t21-/m0/s1

> <PUBCHEM_IUPAC_INCHIKEY>
VMSLCPKYRPDHLN-NRFANRHFSA-N

> <PUBCHEM_XLOGP3_AA>
4.2

> <PUBCHEM_EXACT_MASS>
362.20932405

> <PUBCHEM_MOLECULAR_FORMULA>
C21H30O5

> <PUBCHEM_MOLECULAR_WEIGHT>
362.5

> <PUBCHEM_OPENEYE_CAN_SMILES>
CC(C)CC(=O)C1=C(C(=C(C(C1=O)(CC=C(C)C)O)O)CC=C(C)C)O

> <PUBCHEM_OPENEYE_ISO_SMILES>
CC(C)CC(=O)C1=C(C(=C([C@](C1=O)(CC=C(C)C)O)O)CC=C(C)C)O

> <PUBCHEM_CACTVS_TPSA>
94.8

> <PUBCHEM_MONOISOTOPIC_WEIGHT>
362.20932405

> <PUBCHEM_TOTAL_CHARGE>
0

> <PUBCHEM_HEAVY_ATOM_COUNT>
26

> <PUBCHEM_ATOM_DEF_STEREO_COUNT>
1

> <PUBCHEM_ATOM_UDEF_STEREO_COUNT>
0

> <PUBCHEM_BOND_DEF_STEREO_COUNT>
0

> <PUBCHEM_BOND_UDEF_STEREO_COUNT>
0

> <PUBCHEM_ISOTOPIC_ATOM_COUNT>
0

> <PUBCHEM_COMPONENT_COUNT>
1

> <PUBCHEM_CACTVS_TAUTO_COUNT>
19

> <PUBCHEM_COORDINATE_TYPE>
1
5
255

> <PUBCHEM_BONDANNOTATIONS>
6  1  6

$$$$
83489
  SciTegic09112316442D

 74 78  0  0  1  0            999 V2000
    6.8671   -1.7787    0.0000 O   0  0
    6.0010   -4.2787    0.0000 O   0  0
    4.2690   -4.2787    0.0000 O   0  0
    7.7331   -4.2787    0.0000 O   0  0
    7.7331   -0.2787    0.0000 O   0  0
    9.4651   -3.2787    0.0000 O   0  0
    9.4651   -1.2787    0.0000 O   0  0
    6.0010   -6.2787    0.0000 O   0  0
    4.2690   -7.2787    0.0000 O   0  0
    2.5369   -6.2787    0.0000 O   0  0
    5.9589    2.7733    0.0000 O   0  0
    4.1934   -0.2514    0.0000 O   0  0
    3.3550    1.2833    0.0000 O   0  0
    6.8384    6.2699    0.0000 O   0  0
    5.1102    7.2766    0.0000 O   0  0
    6.8671   -2.7787    0.0000 C   0  0  1  0  0  0
    7.7331   -3.2787    0.0000 C   0  0  2  0  0  0
    8.5991   -2.7787    0.0000 C   0  0  1  0  0  0
    8.5991   -1.7787    0.0000 C   0  0  2  0  0  0
    5.1350   -5.7787    0.0000 C   0  0  1  0  0  0
    5.1350   -4.7787    0.0000 C   0  0  2  0  0  0
    4.2690   -6.2787    0.0000 C   0  0  1  0  0  0
    3.4030   -5.7787    0.0000 C   0  0  2  0  0  0
    7.7331   -1.2787    0.0000 C   0  0  1  0  0  0
    6.0010   -3.2787    0.0000 C   0  0
    3.4030   -4.7787    0.0000 C   0  0  2  0  0  0
    2.5369   -4.2787    0.0000 C   0  0
    6.8671    0.2213    0.0000 C   0  0
    6.8630    1.2630    0.0000 C   0  0
    5.9550    1.7733    0.0000 C   0  0
    5.9630   -0.2960    0.0000 C   0  0
    5.0948    3.2766    0.0000 C   0  0  1  0  0  0
    5.0871    1.2766    0.0000 C   0  0
    4.2268    2.7800    0.0000 C   0  0
    5.0670    0.2352    0.0000 C   0  0
    4.2230    1.7800    0.0000 C   0  0
    5.0986    4.2766    0.0000 C   0  0
    5.9666    4.7733    0.0000 C   0  0
    4.2345    4.7800    0.0000 C   0  0
    5.9704    5.7733    0.0000 C   0  0
    4.2384    5.7800    0.0000 C   0  0
    5.1063    6.2766    0.0000 C   0  0
    6.3301   -2.4687    0.0000 H   0  0
    8.2700   -3.5887    0.0000 H   0  0
    9.1360   -2.4687    0.0000 H   0  0
    8.5991   -1.1587    0.0000 H   0  0
    5.1350   -6.3987    0.0000 H   0  0
    5.1350   -4.1587    0.0000 H   0  0
    3.7320   -6.5887    0.0000 H   0  0
    3.4030   -6.3987    0.0000 H   0  0
    7.1962   -0.9687    0.0000 H   0  0
    5.7890   -2.6961    0.0000 H   0  0
    5.3905   -3.3863    0.0000 H   0  0
    3.4030   -4.1587    0.0000 H   0  0
    2.8469   -3.7417    0.0000 H   0  0
    2.0000   -3.9687    0.0000 H   0  0
    2.2269   -4.8156    0.0000 H   0  0
    8.2700   -4.5887    0.0000 H   0  0
   10.0021   -2.9687    0.0000 H   0  0
    9.4651   -0.6587    0.0000 H   0  0
    6.5380   -5.9687    0.0000 H   0  0
    3.7320   -7.5887    0.0000 H   0  0
    2.0000   -5.9687    0.0000 H   0  0
    7.3976    1.5771    0.0000 H   0  0
    5.6329    3.5846    0.0000 H   0  0
    5.9582   -0.9160    0.0000 H   0  0
    4.0170    3.3634    0.0000 H   0  0
    3.6158    2.6747    0.0000 H   0  0
    6.5023    4.4612    0.0000 H   0  0
    3.6964    4.4720    0.0000 H   0  0
    4.1838   -0.8713    0.0000 H   0  0
    3.7026    6.0920    0.0000 H   0  0
    6.8408    6.8899    0.0000 H   0  0
    4.5744    7.5887    0.0000 H   0  0
  1 16  1  0
  1 24  1  0
 21  2  1  1
  2 25  1  0
  3 21  1  0
  3 26  1  0
 17  4  1  6
  4 58  1  0
 24  5  1  1
  5 28  1  0
 18  6  1  1
  6 59  1  0
 19  7  1  6
  7 60  1  0
 20  8  1  6
  8 61  1  0
 22  9  1  6
  9 62  1  0
 23 10  1  1
 10 63  1  0
 11 30  1  0
 11 32  1  0
 12 35  1  0
 12 71  1  0
 13 36  2  0
 14 40  1  0
 14 73  1  0
 15 42  1  0
 15 74  1  0
 16 17  1  0
 16 25  1  1
 16 43  1  0
 17 18  1  0
 17 44  1  0
 18 19  1  0
 18 45  1  0
 19 24  1  0
 19 46  1  0
 20 21  1  0
 20 22  1  0
 20 47  1  0
 21 48  1  0
 22 23  1  0
 22 49  1  0
 23 26  1  0
 23 50  1  0
 24 51  1  0
 25 52  1  0
 25 53  1  0
 26 27  1  6
 26 54  1  0
 27 55  1  0
 27 56  1  0
 27 57  1  0
 28 29  1  0
 28 31  2  0
 29 30  2  0
 29 64  1  0
 30 33  1  0
 31 35  1  0
 31 66  1  0
 32 34  1  0
 32 37  1  1
 32 65  1  0
 33 35  2  0
 33 36  1  0
 34 36  1  0
 34 67  1  0
 34 68  1  0
 37 38  2  0
 37 39  1  0
 38 40  1  0
 38 69  1  0
 39 41  2  0
 39 70  1  0
 40 42  2  0
 41 42  1  0
 41 72  1  0
M  END
> <Name>
83489

> <OBJECTID>
9223372947391184910

> <PUBCHEM_COMPOUND_CID>
83489

> <PUBCHEM_COMPOUND_CANONICALIZED>
1

> <PUBCHEM_CACTVS_COMPLEXITY>
924

> <PUBCHEM_CACTVS_HBOND_ACCEPTOR>
15

> <PUBCHEM_CACTVS_HBOND_DONOR>
9

> <PUBCHEM_CACTVS_ROTATABLE_BOND>
6

> <PUBCHEM_CACTVS_SUBSKEYS>
AAADcfB4PAAAAAAAAAAAAAAAAAAAAAAAAAA0aJECAAAAAACRQAAAGgAACAAADBSwmAMyDoAABgCIAqBSAAACCAAkIAAIiAEGiMgdNzaGNRqieWGl4BUPuQfI7PzOIAABCAAIQABAAAIQABCAAAAAAAAAAA==

> <PUBCHEM_IUPAC_OPENEYE_NAME>
(2S)-2-(3,4-dihydroxyphenyl)-5-hydroxy-7-[(2S,3R,4S,5S,6R)-3,4,5-trihydroxy-6-[[(2R,3R,4R,5R,6S)-3,4,5-trihydroxy-6-methyl-tetrahydropyran-2-yl]oxymethyl]tetrahydropyran-2-yl]oxy-chroman-4-one

> <PUBCHEM_IUPAC_CAS_NAME>
(2S)-2-(3,4-dihydroxyphenyl)-5-hydroxy-7-[[(2S,3R,4S,5S,6R)-3,4,5-trihydroxy-6-[[(2R,3R,4R,5R,6S)-3,4,5-trihydroxy-6-methyl-2-oxanyl]oxymethyl]-2-oxanyl]oxy]-3,4-dihydro-2H-1-benzopyran-4-one

> <PUBCHEM_IUPAC_NAME_MARKUP>
(2<I>S</I>)-2-(3,4-dihydroxyphenyl)-5-hydroxy-7-[(2<I>S</I>,3<I>R</I>,4<I>S</I>,5<I>S</I>,6<I>R</I>)-3,4,5-trihydroxy-6-[[(2<I>R</I>,3<I>R</I>,4<I>R</I>,5<I>R</I>,6<I>S</I>)-3,4,5-trihydroxy-6-methyloxan-2-yl]oxymethyl]oxan-2-yl]oxy-2,3-dihydrochromen-4-one

> <PUBCHEM_IUPAC_NAME>
(2S)-2-(3,4-dihydroxyphenyl)-5-hydroxy-7-[(2S,3R,4S,5S,6R)-3,4,5-trihydroxy-6-[[(2R,3R,4R,5R,6S)-3,4,5-trihydroxy-6-methyloxan-2-yl]oxymethyl]oxan-2-yl]oxy-2,3-dihydrochromen-4-one

> <PUBCHEM_IUPAC_SYSTEMATIC_NAME>
(2S)-2-[3,4-bis(oxidanyl)phenyl]-7-[(2S,3R,4S,5S,6R)-6-[[(2R,3R,4R,5R,6S)-6-methyl-3,4,5-tris(oxidanyl)oxan-2-yl]oxymethyl]-3,4,5-tris(oxidanyl)oxan-2-yl]oxy-5-oxidanyl-2,3-dihydrochromen-4-one

> <PUBCHEM_IUPAC_TRADITIONAL_NAME>
(2S)-2-(3,4-dihydroxyphenyl)-5-hydroxy-7-[(2S,3R,4S,5S,6R)-3,4,5-trihydroxy-6-[[(2R,3R,4R,5R,6S)-3,4,5-trihydroxy-6-methyl-tetrahydropyran-2-yl]oxymethyl]tetrahydropyran-2-yl]oxy-chroman-4-one

> <PUBCHEM_IUPAC_INCHI>
InChI=1S/C27H32O15/c1-9-20(32)22(34)24(36)26(39-9)38-8-18-21(33)23(35)25(37)27(42-18)40-11-5-14(30)19-15(31)7-16(41-17(19)6-11)10-2-3-12(28)13(29)4-10/h2-6,9,16,18,20-30,32-37H,7-8H2,1H3/t9-,16-,18+,20-,21+,22+,23-,24+,25+,26+,27+/m0/s1

> <PUBCHEM_IUPAC_INCHIKEY>
OMQADRGFMLGFJF-MNPJBKLOSA-N

> <PUBCHEM_XLOGP3_AA>
-1.4

> <PUBCHEM_EXACT_MASS>
596.17412031

> <PUBCHEM_MOLECULAR_FORMULA>
C27H32O15

> <PUBCHEM_MOLECULAR_WEIGHT>
596.5

> <PUBCHEM_OPENEYE_CAN_SMILES>
CC1C(C(C(C(O1)OCC2C(C(C(C(O2)OC3=CC(=C4C(=O)CC(OC4=C3)C5=CC(=C(C=C5)O)O)O)O)O)O)O)O)O

> <PUBCHEM_OPENEYE_ISO_SMILES>
C[C@H]1[C@@H]([C@H]([C@H]([C@@H](O1)OC[C@@H]2[C@H]([C@@H]([C@H]([C@@H](O2)OC3=CC(=C4C(=O)C[C@H](OC4=C3)C5=CC(=C(C=C5)O)O)O)O)O)O)O)O)O

> <PUBCHEM_CACTVS_TPSA>
245

> <PUBCHEM_MONOISOTOPIC_WEIGHT>
596.17412031

> <PUBCHEM_TOTAL_CHARGE>
0

> <PUBCHEM_HEAVY_ATOM_COUNT>
42

> <PUBCHEM_ATOM_DEF_STEREO_COUNT>
11

> <PUBCHEM_ATOM_UDEF_STEREO_COUNT>
0

> <PUBCHEM_BOND_DEF_STEREO_COUNT>
0

> <PUBCHEM_BOND_UDEF_STEREO_COUNT>
0

> <PUBCHEM_ISOTOPIC_ATOM_COUNT>
0

> <PUBCHEM_COMPONENT_COUNT>
1

> <PUBCHEM_CACTVS_TAUTO_COUNT>
90

> <PUBCHEM_COORDINATE_TYPE>
1
5
255

> <PUBCHEM_BONDANNOTATIONS>
23  10  5
16  25  5
21  2  5
26  27  6
28  29  8
28  31  8
29  30  8
30  33  8
31  35  8
32  37  5
33  35  8
37  38  8
37  39  8
38  40  8
39  41  8
17  4  6
40  42  8
41  42  8
24  5  5
18  6  5
19  7  6
20  8  6
22  9  6

$$$$
92836
  SciTegic09112316442D

 51 50  0  0  1  0            999 V2000
   14.1244   -1.0950    0.0000 O   0  0
   15.8564   -0.0950    0.0000 O   0  0
   14.9904    1.4050    0.0000 O   0  0
    8.9282   -0.0950    0.0000 C   0  0
    8.0622    0.4050    0.0000 C   0  0
    9.7942    0.4050    0.0000 C   0  0
    7.1962   -0.0950    0.0000 C   0  0
   10.6603   -0.0950    0.0000 C   0  0
    6.3301    0.4050    0.0000 C   0  0
    5.4641   -0.0950    0.0000 C   0  0
   11.5263    0.4050    0.0000 C   0  0
    4.5981    0.4050    0.0000 C   0  0
   12.3923   -0.0950    0.0000 C   0  0
    3.7320   -0.0950    0.0000 C   0  0
   13.2583    0.4050    0.0000 C   0  0
    2.8660    0.4050    0.0000 C   0  0
   14.1244   -0.0950    0.0000 C   0  0
    2.0000   -0.0950    0.0000 C   0  0
   14.9904    0.4050    0.0000 C   0  0
    8.5297   -0.5699    0.0000 H   0  0
    9.3267   -0.5699    0.0000 H   0  0
    8.4607    0.8799    0.0000 H   0  0
    7.6636    0.8799    0.0000 H   0  0
   10.1928    0.8799    0.0000 H   0  0
    9.3957    0.8799    0.0000 H   0  0
    6.7976   -0.5699    0.0000 H   0  0
    7.5947   -0.5699    0.0000 H   0  0
   10.2617   -0.5699    0.0000 H   0  0
   11.0588   -0.5699    0.0000 H   0  0
    6.7287    0.8799    0.0000 H   0  0
    5.9316    0.8799    0.0000 H   0  0
    5.0656   -0.5699    0.0000 H   0  0
    5.8626   -0.5699    0.0000 H   0  0
   11.9248    0.8799    0.0000 H   0  0
   11.1278    0.8799    0.0000 H   0  0
    4.9966    0.8799    0.0000 H   0  0
    4.1996    0.8799    0.0000 H   0  0
   11.9938   -0.5699    0.0000 H   0  0
   12.7908   -0.5699    0.0000 H   0  0
    3.3335   -0.5699    0.0000 H   0  0
    4.1306   -0.5699    0.0000 H   0  0
   13.6569    0.8799    0.0000 H   0  0
   12.8598    0.8799    0.0000 H   0  0
    3.2646    0.8799    0.0000 H   0  0
    2.4675    0.8799    0.0000 H   0  0
   13.3882   -0.5200    0.0000 H   0  0
    1.6900    0.4419    0.0000 H   0  0
    1.4631   -0.4050    0.0000 H   0  0
    2.3100   -0.6319    0.0000 H   0  0
   13.5874   -1.4050    0.0000 H   0  0
   16.3933    0.2150    0.0000 H   0  0
  1 17  1  0
  1 50  1  0
  2 19  1  0
  2 51  1  0
  3 19  2  0
  4  5  1  0
  4  6  1  0
  4 20  1  0
  4 21  1  0
  5  7  1  0
  5 22  1  0
  5 23  1  0
  6  8  1  0
  6 24  1  0
  6 25  1  0
  7  9  1  0
  7 26  1  0
  7 27  1  0
  8 11  1  0
  8 28  1  0
  8 29  1  0
  9 10  1  0
  9 30  1  0
  9 31  1  0
 10 12  1  0
 10 32  1  0
 10 33  1  0
 11 13  1  0
 11 34  1  0
 11 35  1  0
 12 14  1  0
 12 36  1  0
 12 37  1  0
 13 15  1  0
 13 38  1  0
 13 39  1  0
 14 16  1  0
 14 40  1  0
 14 41  1  0
 15 17  1  0
 15 42  1  0
 15 43  1  0
 16 18  1  0
 16 44  1  0
 16 45  1  0
 17 19  1  0
 17 46  1  0
 18 47  1  0
 18 48  1  0
 18 49  1  0
M  END
> <Name>
92836

> <OBJECTID>
9223372951686152206

> <PUBCHEM_COMPOUND_CID>
92836

> <PUBCHEM_COMPOUND_CANONICALIZED>
1

> <PUBCHEM_CACTVS_COMPLEXITY>
204

> <PUBCHEM_CACTVS_HBOND_ACCEPTOR>
3

> <PUBCHEM_CACTVS_HBOND_DONOR>
2

> <PUBCHEM_CACTVS_ROTATABLE_BOND>
14

> <PUBCHEM_CACTVS_SUBSKEYS>
AAADcfB4MAAAAAAAAAAAAAAAAAAAAAAAAAAAAAAAAAAAAAAAAAAAGgAACAAACBSggAICCAAAAgAIAACQCAIAAAAAAAAAAAFAAAABEBIAAAAAQAAEAAABAAGIyKCAAAAAAAAAAAAAAAAAAAAAAAAAAAAAAA==

> <PUBCHEM_IUPAC_OPENEYE_NAME>
2-hydroxyhexadecanoic acid

> <PUBCHEM_IUPAC_CAS_NAME>
2-hydroxyhexadecanoic acid

> <PUBCHEM_IUPAC_NAME_MARKUP>
2-hydroxyhexadecanoic acid

> <PUBCHEM_IUPAC_NAME>
2-hydroxyhexadecanoic acid

> <PUBCHEM_IUPAC_SYSTEMATIC_NAME>
2-oxidanylhexadecanoic acid

> <PUBCHEM_IUPAC_TRADITIONAL_NAME>
2-hydroxypalmitic acid

> <PUBCHEM_IUPAC_INCHI>
InChI=1S/C16H32O3/c1-2-3-4-5-6-7-8-9-10-11-12-13-14-15(17)16(18)19/h15,17H,2-14H2,1H3,(H,18,19)

> <PUBCHEM_IUPAC_INCHIKEY>
JGHSBPIZNUXPLA-UHFFFAOYSA-N

> <PUBCHEM_XLOGP3_AA>
6.4

> <PUBCHEM_EXACT_MASS>
272.23514488

> <PUBCHEM_MOLECULAR_FORMULA>
C16H32O3

> <PUBCHEM_MOLECULAR_WEIGHT>
272.42

> <PUBCHEM_OPENEYE_CAN_SMILES>
CCCCCCCCCCCCCCC(C(=O)O)O

> <PUBCHEM_OPENEYE_ISO_SMILES>
CCCCCCCCCCCCCCC(C(=O)O)O

> <PUBCHEM_CACTVS_TPSA>
57.5

> <PUBCHEM_MONOISOTOPIC_WEIGHT>
272.23514488

> <PUBCHEM_TOTAL_CHARGE>
0

> <PUBCHEM_HEAVY_ATOM_COUNT>
19

> <PUBCHEM_ATOM_DEF_STEREO_COUNT>
0

> <PUBCHEM_ATOM_UDEF_STEREO_COUNT>
1

> <PUBCHEM_BOND_DEF_STEREO_COUNT>
0

> <PUBCHEM_BOND_UDEF_STEREO_COUNT>
0

> <PUBCHEM_ISOTOPIC_ATOM_COUNT>
0

> <PUBCHEM_COMPONENT_COUNT>
1

> <PUBCHEM_CACTVS_TAUTO_COUNT>
1

> <PUBCHEM_COORDINATE_TYPE>
1
5
255

> <PUBCHEM_BONDANNOTATIONS>
17  46  3

$$$$
101799
  SciTegic09112316442D

 36 37  0  0  1  0            999 V2000
    5.1350    0.1550    0.0000 O   0  0
    6.8671    0.1550    0.0000 O   0  0
    5.1350   -2.8450    0.0000 O   0  0
    3.4030   -1.8450    0.0000 O   0  0
    6.8671   -1.8450    0.0000 O   0  0
    2.5369   -0.3450    0.0000 O   0  0
    9.4651    1.6550    0.0000 O   0  0
    5.1350   -1.8450    0.0000 C   0  0  1  0  0  0
    4.2690   -1.3450    0.0000 C   0  0  1  0  0  0
    6.0010   -1.3450    0.0000 C   0  0  2  0  0  0
    4.2690   -0.3450    0.0000 C   0  0  1  0  0  0
    6.0010   -0.3450    0.0000 C   0  0  1  0  0  0
    3.4030    0.1550    0.0000 C   0  0
    6.8671    1.1550    0.0000 C   0  0
    7.7331    1.6550    0.0000 C   0  0
    6.0010    1.6550    0.0000 C   0  0
    7.7331    2.6550    0.0000 C   0  0
    6.0010    2.6550    0.0000 C   0  0
    6.8671    3.1550    0.0000 C   0  0
    8.5991    1.1550    0.0000 C   0  0
    4.5981   -2.1550    0.0000 H   0  0
    4.2690   -1.9650    0.0000 H   0  0
    6.0010   -1.9650    0.0000 H   0  0
    4.2690    0.2750    0.0000 H   0  0
    6.0010    0.2750    0.0000 H   0  0
    3.8015    0.6299    0.0000 H   0  0
    3.0044    0.6299    0.0000 H   0  0
    4.5981   -3.1550    0.0000 H   0  0
    3.4030   -2.4650    0.0000 H   0  0
    6.8671   -2.4650    0.0000 H   0  0
    2.0000   -0.0350    0.0000 H   0  0
    5.4641    1.3450    0.0000 H   0  0
    8.2700    2.9650    0.0000 H   0  0
    5.4641    2.9650    0.0000 H   0  0
    6.8671    3.7750    0.0000 H   0  0
    8.5991    0.5350    0.0000 H   0  0
  1 11  1  0
  1 12  1  0
 12  2  1  1
  2 14  1  0
  8  3  1  1
  3 28  1  0
  9  4  1  6
  4 29  1  0
 10  5  1  6
  5 30  1  0
  6 13  1  0
  6 31  1  0
  7 20  2  0
  8  9  1  0
  8 10  1  0
  8 21  1  0
  9 11  1  0
  9 22  1  0
 10 12  1  0
 10 23  1  0
 11 13  1  1
 11 24  1  0
 12 25  1  0
 13 26  1  0
 13 27  1  0
 14 15  1  0
 14 16  2  0
 15 17  2  0
 15 20  1  0
 16 18  1  0
 16 32  1  0
 17 19  1  0
 17 33  1  0
 18 19  2  0
 18 34  1  0
 19 35  1  0
 20 36  1  0
M  END
> <Name>
101799

> <OBJECTID>
9223372955981119502

> <PUBCHEM_COMPOUND_CID>
101799

> <PUBCHEM_COMPOUND_CANONICALIZED>
1

> <PUBCHEM_CACTVS_COMPLEXITY>
324

> <PUBCHEM_CACTVS_HBOND_ACCEPTOR>
7

> <PUBCHEM_CACTVS_HBOND_DONOR>
4

> <PUBCHEM_CACTVS_ROTATABLE_BOND>
4

> <PUBCHEM_CACTVS_SUBSKEYS>
AAADceBwOAAAAAAAAAAAAAAAAAAAAAAAAAA0QAAAAAAAAAABAAAAGgAACAAADBSwmAMwDoAABgCIAihSgAACCAAkIAAIiAEGCMgdNjaENRqieWCl4BEPqYfI6CyOAAAAAAAIAAAAAAAAABAAAAAAAAAAAA==

> <PUBCHEM_IUPAC_OPENEYE_NAME>
2-[(2S,3R,4S,5S,6R)-3,4,5-trihydroxy-6-(hydroxymethyl)tetrahydropyran-2-yl]oxybenzaldehyde

> <PUBCHEM_IUPAC_CAS_NAME>
2-[[(2S,3R,4S,5S,6R)-3,4,5-trihydroxy-6-(hydroxymethyl)-2-oxanyl]oxy]benzaldehyde

> <PUBCHEM_IUPAC_NAME_MARKUP>
2-[(2<I>S</I>,3<I>R</I>,4<I>S</I>,5<I>S</I>,6<I>R</I>)-3,4,5-trihydroxy-6-(hydroxymethyl)oxan-2-yl]oxybenzaldehyde

> <PUBCHEM_IUPAC_NAME>
2-[(2S,3R,4S,5S,6R)-3,4,5-trihydroxy-6-(hydroxymethyl)oxan-2-yl]oxybenzaldehyde

> <PUBCHEM_IUPAC_SYSTEMATIC_NAME>
2-[(2S,3R,4S,5S,6R)-6-(hydroxymethyl)-3,4,5-tris(oxidanyl)oxan-2-yl]oxybenzaldehyde

> <PUBCHEM_IUPAC_TRADITIONAL_NAME>
2-[(2S,3R,4S,5S,6R)-3,4,5-trihydroxy-6-methylol-tetrahydropyran-2-yl]oxybenzaldehyde

> <PUBCHEM_IUPAC_INCHI>
InChI=1S/C13H16O7/c14-5-7-3-1-2-4-8(7)19-13-12(18)11(17)10(16)9(6-15)20-13/h1-5,9-13,15-18H,6H2/t9-,10-,11+,12-,13-/m1/s1

> <PUBCHEM_IUPAC_INCHIKEY>
BGOFCVIGEYGEOF-UJPOAAIJSA-N

> <PUBCHEM_XLOGP3>
-1.5

> <PUBCHEM_EXACT_MASS>
284.08960285

> <PUBCHEM_MOLECULAR_FORMULA>
C13H16O7

> <PUBCHEM_MOLECULAR_WEIGHT>
284.26

> <PUBCHEM_OPENEYE_CAN_SMILES>
C1=CC=C(C(=C1)C=O)OC2C(C(C(C(O2)CO)O)O)O

> <PUBCHEM_OPENEYE_ISO_SMILES>
C1=CC=C(C(=C1)C=O)O[C@H]2[C@@H]([C@H]([C@@H]([C@H](O2)CO)O)O)O

> <PUBCHEM_CACTVS_TPSA>
116

> <PUBCHEM_MONOISOTOPIC_WEIGHT>
284.08960285

> <PUBCHEM_TOTAL_CHARGE>
0

> <PUBCHEM_HEAVY_ATOM_COUNT>
20

> <PUBCHEM_ATOM_DEF_STEREO_COUNT>
5

> <PUBCHEM_ATOM_UDEF_STEREO_COUNT>
0

> <PUBCHEM_BOND_DEF_STEREO_COUNT>
0

> <PUBCHEM_BOND_UDEF_STEREO_COUNT>
0

> <PUBCHEM_ISOTOPIC_ATOM_COUNT>
0

> <PUBCHEM_COMPONENT_COUNT>
1

> <PUBCHEM_CACTVS_TAUTO_COUNT>
1

> <PUBCHEM_COORDINATE_TYPE>
1
5
255

> <PUBCHEM_BONDANNOTATIONS>
11  13  5
14  15  8
14  16  8
15  17  8
16  18  8
17  19  8
18  19  8
12  2  5
8  3  5
9  4  6
10  5  6

$$$$
107905
  SciTegic09112316442D

 50 53  0  0  1  0            999 V2000
    6.0682   -1.7500    0.0000 O   0  0
    7.8003    0.2500    0.0000 O   0  0
    4.3198    1.2846    0.0000 O   0  0
    2.5381   -1.7742    0.0000 O   0  0
    8.6663   -4.2500    0.0000 O   0  0
    6.9343    1.7500    0.0000 O   0  0
   10.3984   -3.2500    0.0000 O   0  0
   11.2644    1.2500    0.0000 O   0  0
    9.5323    4.2500    0.0000 O   0  0
   11.2644    3.2500    0.0000 O   0  0
    6.9343   -0.2500    0.0000 C   0  0  1  0  0  0
    6.9343   -1.2500    0.0000 C   0  0  1  0  0  0
    6.0682    0.2500    0.0000 C   0  0
    5.2022   -0.2500    0.0000 C   0  0
    5.2022   -1.2500    0.0000 C   0  0
    7.8003   -1.7500    0.0000 C   0  0
    4.3083    0.2847    0.0000 C   0  0
    4.3083   -1.7847    0.0000 C   0  0
    7.8003   -2.7500    0.0000 C   0  0
    8.6663   -1.2500    0.0000 C   0  0
    3.4022   -0.2292    0.0000 C   0  0
    3.4022   -1.2708    0.0000 C   0  0
    7.8003    1.2500    0.0000 C   0  0
    8.6663   -3.2500    0.0000 C   0  0
    9.5323   -1.7500    0.0000 C   0  0
    9.5323   -2.7500    0.0000 C   0  0
    8.6663    1.7500    0.0000 C   0  0
    8.6663    2.7500    0.0000 C   0  0
    9.5323    1.2500    0.0000 C   0  0
   10.3984    1.7500    0.0000 C   0  0
    9.5323    3.2500    0.0000 C   0  0
   10.3984    2.7500    0.0000 C   0  0
    6.9343    0.3700    0.0000 H   0  0
    6.9343   -1.8700    0.0000 H   0  0
    6.4668    0.7249    0.0000 H   0  0
    5.6697    0.7249    0.0000 H   0  0
    4.3154   -2.4046    0.0000 H   0  0
    7.2634   -3.0600    0.0000 H   0  0
    8.6663   -0.6300    0.0000 H   0  0
    2.8665    0.0829    0.0000 H   0  0
   10.0693   -1.4400    0.0000 H   0  0
    3.7865    1.6008    0.0000 H   0  0
    2.0000   -1.4662    0.0000 H   0  0
    8.1294    3.0600    0.0000 H   0  0
    9.5323    0.6300    0.0000 H   0  0
    9.2033   -4.5600    0.0000 H   0  0
   10.9353   -2.9400    0.0000 H   0  0
   11.8013    1.5600    0.0000 H   0  0
    8.9954    4.5600    0.0000 H   0  0
   11.2644    3.8700    0.0000 H   0  0
  1 12  1  0
  1 15  1  0
 11  2  1  1
  2 23  1  0
  3 17  1  0
  3 42  1  0
  4 22  1  0
  4 43  1  0
  5 24  1  0
  5 46  1  0
  6 23  2  0
  7 26  1  0
  7 47  1  0
  8 30  1  0
  8 48  1  0
  9 31  1  0
  9 49  1  0
 10 32  1  0
 10 50  1  0
 11 12  1  0
 11 13  1  0
 11 33  1  0
 12 16  1  1
 12 34  1  0
 13 14  1  0
 13 35  1  0
 13 36  1  0
 14 15  1  0
 14 17  2  0
 15 18  2  0
 16 19  2  0
 16 20  1  0
 17 21  1  0
 18 22  1  0
 18 37  1  0
 19 24  1  0
 19 38  1  0
 20 25  2  0
 20 39  1  0
 21 22  2  0
 21 40  1  0
 23 27  1  0
 24 26  2  0
 25 26  1  0
 25 41  1  0
 27 28  2  0
 27 29  1  0
 28 31  1  0
 28 44  1  0
 29 30  2  0
 29 45  1  0
 30 32  1  0
 31 32  2  0
M  END
> <Name>
107905

> <OBJECTID>
9223372960276086798

> <PUBCHEM_COMPOUND_CID>
107905

> <PUBCHEM_COMPOUND_CANONICALIZED>
1

> <PUBCHEM_CACTVS_COMPLEXITY>
649

> <PUBCHEM_CACTVS_HBOND_ACCEPTOR>
10

> <PUBCHEM_CACTVS_HBOND_DONOR>
7

> <PUBCHEM_CACTVS_ROTATABLE_BOND>
4

> <PUBCHEM_CACTVS_SUBSKEYS>
AAADceB4PAAAAAAAAAAAAAAAAAAAAAAAAAA0YMEAAAAAAACRUAAAGgAACAAADBSgmAIwDoAABgCIAiDSCAACCAAkIAAIiAEGiMgNJzKGNRqCeSGlwBULuYfK7PzOIAABCAAIQABAAAIQABCAAAAAAAAAAA==

> <PUBCHEM_IUPAC_OPENEYE_NAME>
[(2R,3R)-2-(3,4-dihydroxyphenyl)-5,7-dihydroxy-chroman-3-yl] 3,4,5-trihydroxybenzoate

> <PUBCHEM_IUPAC_CAS_NAME>
3,4,5-trihydroxybenzoic acid [(2R,3R)-2-(3,4-dihydroxyphenyl)-5,7-dihydroxy-3,4-dihydro-2H-1-benzopyran-3-yl] ester

> <PUBCHEM_IUPAC_NAME_MARKUP>
[(2<I>R</I>,3<I>R</I>)-2-(3,4-dihydroxyphenyl)-5,7-dihydroxy-3,4-dihydro-2<I>H</I>-chromen-3-yl] 3,4,5-trihydroxybenzoate

> <PUBCHEM_IUPAC_NAME>
[(2R,3R)-2-(3,4-dihydroxyphenyl)-5,7-dihydroxy-3,4-dihydro-2H-chromen-3-yl] 3,4,5-trihydroxybenzoate

> <PUBCHEM_IUPAC_SYSTEMATIC_NAME>
[(2R,3R)-2-[3,4-bis(oxidanyl)phenyl]-5,7-bis(oxidanyl)-3,4-dihydro-2H-chromen-3-yl] 3,4,5-tris(oxidanyl)benzoate

> <PUBCHEM_IUPAC_TRADITIONAL_NAME>
3,4,5-trihydroxybenzoic acid [(2R,3R)-2-(3,4-dihydroxyphenyl)-5,7-dihydroxy-chroman-3-yl] ester

> <PUBCHEM_IUPAC_INCHI>
InChI=1S/C22H18O10/c23-11-6-14(25)12-8-19(32-22(30)10-4-16(27)20(29)17(28)5-10)21(31-18(12)7-11)9-1-2-13(24)15(26)3-9/h1-7,19,21,23-29H,8H2/t19-,21-/m1/s1

> <PUBCHEM_IUPAC_INCHIKEY>
LSHVYAFMTMFKBA-TZIWHRDSSA-N

> <PUBCHEM_XLOGP3>
1.5

> <PUBCHEM_EXACT_MASS>
442.08999677

> <PUBCHEM_MOLECULAR_FORMULA>
C22H18O10

> <PUBCHEM_MOLECULAR_WEIGHT>
442.4

> <PUBCHEM_OPENEYE_CAN_SMILES>
C1C(C(OC2=CC(=CC(=C21)O)O)C3=CC(=C(C=C3)O)O)OC(=O)C4=CC(=C(C(=C4)O)O)O

> <PUBCHEM_OPENEYE_ISO_SMILES>
C1[C@H]([C@H](OC2=CC(=CC(=C21)O)O)C3=CC(=C(C=C3)O)O)OC(=O)C4=CC(=C(C(=C4)O)O)O

> <PUBCHEM_CACTVS_TPSA>
177

> <PUBCHEM_MONOISOTOPIC_WEIGHT>
442.08999677

> <PUBCHEM_TOTAL_CHARGE>
0

> <PUBCHEM_HEAVY_ATOM_COUNT>
32

> <PUBCHEM_ATOM_DEF_STEREO_COUNT>
2

> <PUBCHEM_ATOM_UDEF_STEREO_COUNT>
0

> <PUBCHEM_BOND_DEF_STEREO_COUNT>
0

> <PUBCHEM_BOND_UDEF_STEREO_COUNT>
0

> <PUBCHEM_ISOTOPIC_ATOM_COUNT>
0

> <PUBCHEM_COMPONENT_COUNT>
1

> <PUBCHEM_CACTVS_TAUTO_COUNT>
-1

> <PUBCHEM_COORDINATE_TYPE>
1
5
255

> <PUBCHEM_BONDANNOTATIONS>
12  16  5
14  15  8
14  17  8
15  18  8
16  19  8
16  20  8
17  21  8
18  22  8
19  24  8
11  2  5
20  25  8
21  22  8
24  26  8
25  26  8
27  28  8
27  29  8
28  31  8
29  30  8
30  32  8
31  32  8

$$$$
114627
  SciTegic09112316442D

 74 78  0  0  1  0            999 V2000
    6.8671   -3.6796    0.0000 O   0  0
    5.1350   -1.6796    0.0000 O   0  0
    7.7331   -2.1796    0.0000 O   0  0
    6.8671   -1.6796    0.0000 O   0  0
    5.1350   -4.6796    0.0000 O   0  0
    3.4030   -3.6796    0.0000 O   0  0
    8.5991   -4.6796    0.0000 O   0  0
   10.3312   -3.6796    0.0000 O   0  0
   10.3312   -1.6796    0.0000 O   0  0
    2.5369   -2.1796    0.0000 O   0  0
    8.6230    1.3829    0.0000 O   0  0
    5.1208    1.3996    0.0000 O   0  0
    6.0308    2.8930    0.0000 O   0  0
   12.0910    2.3696    0.0000 O   0  0
   12.0987    4.3696    0.0000 O   0  0
    6.0010   -3.1796    0.0000 C   0  0  2  0  0  0
    5.1350   -3.6796    0.0000 C   0  0  2  0  0  0
    4.2690   -3.1796    0.0000 C   0  0  1  0  0  0
    7.7331   -3.1796    0.0000 C   0  0  2  0  0  0
    6.0010   -2.1796    0.0000 C   0  0  1  0  0  0
    8.5991   -3.6796    0.0000 C   0  0  1  0  0  0
    4.2690   -2.1796    0.0000 C   0  0  1  0  0  0
    9.4651   -3.1796    0.0000 C   0  0  1  0  0  0
    9.4651   -2.1796    0.0000 C   0  0  2  0  0  0
    8.5991   -1.6796    0.0000 C   0  0  2  0  0  0
    3.4030   -1.6796    0.0000 C   0  0
    8.5991   -0.6796    0.0000 C   0  0
    6.8671   -0.6796    0.0000 C   0  0
    7.7671   -0.1553    0.0000 C   0  0
    5.9670   -0.1553    0.0000 C   0  0
    7.7551    0.8863    0.0000 C   0  0
    6.8910    1.3896    0.0000 C   0  0
    8.6269    2.3829    0.0000 C   0  0  1  0  0  0
    5.9790    0.8863    0.0000 C   0  0
    7.7628    2.8863    0.0000 C   0  0
    6.8948    2.3896    0.0000 C   0  0
    9.4948    2.8796    0.0000 C   0  0
   10.3589    2.3763    0.0000 C   0  0
    9.4987    3.8796    0.0000 C   0  0
   11.2269    2.8729    0.0000 C   0  0
   10.3666    4.3762    0.0000 C   0  0
   11.2307    3.8729    0.0000 C   0  0
    6.0010   -3.7996    0.0000 H   0  0
    4.5981   -3.9896    0.0000 H   0  0
    4.2690   -3.7996    0.0000 H   0  0
    7.1962   -2.8696    0.0000 H   0  0
    6.5380   -2.4896    0.0000 H   0  0
    8.0622   -3.9896    0.0000 H   0  0
    4.2690   -1.5596    0.0000 H   0  0
    9.4651   -3.7996    0.0000 H   0  0
   10.0021   -2.4896    0.0000 H   0  0
    8.0622   -1.3696    0.0000 H   0  0
    3.8015   -1.2046    0.0000 H   0  0
    3.0044   -1.2046    0.0000 H   0  0
    9.2191   -0.6796    0.0000 H   0  0
    8.5991   -0.0596    0.0000 H   0  0
    7.9791   -0.6796    0.0000 H   0  0
    4.5981   -4.9896    0.0000 H   0  0
    3.4030   -4.2996    0.0000 H   0  0
    9.1360   -4.9896    0.0000 H   0  0
   10.8681   -3.3696    0.0000 H   0  0
   10.8681   -1.9896    0.0000 H   0  0
    2.0000   -1.8696    0.0000 H   0  0
    8.3064   -0.4611    0.0000 H   0  0
    5.4277   -0.4611    0.0000 H   0  0
    8.6293    3.0029    0.0000 H   0  0
    8.1632    3.3597    0.0000 H   0  0
    7.3661    3.3628    0.0000 H   0  0
   10.3565    1.7563    0.0000 H   0  0
    8.9630    4.1916    0.0000 H   0  0
    4.5792    1.0979    0.0000 H   0  0
   10.3690    4.9962    0.0000 H   0  0
   12.6291    2.6775    0.0000 H   0  0
   12.1011    4.9896    0.0000 H   0  0
 16  1  1  6
 19  1  1  6
  2 20  1  0
  2 22  1  0
  3 19  1  0
  3 25  1  0
 20  4  1  1
  4 28  1  0
 17  5  1  1
  5 58  1  0
 18  6  1  6
  6 59  1  0
 21  7  1  1
  7 60  1  0
 23  8  1  1
  8 61  1  0
 24  9  1  6
  9 62  1  0
 10 26  1  0
 10 63  1  0
 11 31  1  0
 11 33  1  0
 12 34  1  0
 12 71  1  0
 13 36  2  0
 14 40  1  0
 14 73  1  0
 15 42  1  0
 15 74  1  0
 16 17  1  0
 16 20  1  0
 16 43  1  0
 17 18  1  0
 17 44  1  0
 18 22  1  0
 18 45  1  0
 19 21  1  0
 19 46  1  0
 20 47  1  0
 21 23  1  0
 21 48  1  0
 22 26  1  1
 22 49  1  0
 23 24  1  0
 23 50  1  0
 24 25  1  0
 24 51  1  0
 25 27  1  1
 25 52  1  0
 26 53  1  0
 26 54  1  0
 27 55  1  0
 27 56  1  0
 27 57  1  0
 28 29  1  0
 28 30  2  0
 29 31  2  0
 29 64  1  0
 30 34  1  0
 30 65  1  0
 31 32  1  0
 32 34  2  0
 32 36  1  0
 33 35  1  0
 33 37  1  1
 33 66  1  0
 35 36  1  0
 35 67  1  0
 35 68  1  0
 37 38  2  0
 37 39  1  0
 38 40  1  0
 38 69  1  0
 39 41  2  0
 39 70  1  0
 40 42  2  0
 41 42  1  0
 41 72  1  0
M  END
> <Name>
114627

> <OBJECTID>
9223372964571054094

> <PUBCHEM_COMPOUND_CID>
114627

> <PUBCHEM_COMPOUND_CANONICALIZED>
1

> <PUBCHEM_CACTVS_COMPLEXITY>
924

> <PUBCHEM_CACTVS_HBOND_ACCEPTOR>
15

> <PUBCHEM_CACTVS_HBOND_DONOR>
9

> <PUBCHEM_CACTVS_ROTATABLE_BOND>
6

> <PUBCHEM_CACTVS_SUBSKEYS>
AAADcfB4PAAAAAAAAAAAAAAAAAAAAAAAAAA0aJECAAAAAACRQAAAGgAACAAADBSwmAMyDoAABgCIAqBSAAACCAAkIAAIiAEGiMgdNzaGNRqieWGl4BUPuQfI7PzOIAABCAAIQABAAAIQABCAAAAAAAAAAA==

> <PUBCHEM_IUPAC_OPENEYE_NAME>
(2S)-7-[(2S,3R,4S,5S,6R)-4,5-dihydroxy-6-(hydroxymethyl)-3-[(2S,3R,4R,5R,6S)-3,4,5-trihydroxy-6-methyl-tetrahydropyran-2-yl]oxy-tetrahydropyran-2-yl]oxy-2-(3,4-dihydroxyphenyl)-5-hydroxy-chroman-4-one

> <PUBCHEM_IUPAC_CAS_NAME>
(2S)-7-[[(2S,3R,4S,5S,6R)-4,5-dihydroxy-6-(hydroxymethyl)-3-[[(2S,3R,4R,5R,6S)-3,4,5-trihydroxy-6-methyl-2-oxanyl]oxy]-2-oxanyl]oxy]-2-(3,4-dihydroxyphenyl)-5-hydroxy-3,4-dihydro-2H-1-benzopyran-4-one

> <PUBCHEM_IUPAC_NAME_MARKUP>
(2<I>S</I>)-7-[(2<I>S</I>,3<I>R</I>,4<I>S</I>,5<I>S</I>,6<I>R</I>)-4,5-dihydroxy-6-(hydroxymethyl)-3-[(2<I>S</I>,3<I>R</I>,4<I>R</I>,5<I>R</I>,6<I>S</I>)-3,4,5-trihydroxy-6-methyloxan-2-yl]oxyoxan-2-yl]oxy-2-(3,4-dihydroxyphenyl)-5-hydroxy-2,3-dihydrochromen-4-one

> <PUBCHEM_IUPAC_NAME>
(2S)-7-[(2S,3R,4S,5S,6R)-4,5-dihydroxy-6-(hydroxymethyl)-3-[(2S,3R,4R,5R,6S)-3,4,5-trihydroxy-6-methyloxan-2-yl]oxyoxan-2-yl]oxy-2-(3,4-dihydroxyphenyl)-5-hydroxy-2,3-dihydrochromen-4-one

> <PUBCHEM_IUPAC_SYSTEMATIC_NAME>
(2S)-2-[3,4-bis(oxidanyl)phenyl]-7-[(2S,3R,4S,5S,6R)-6-(hydroxymethyl)-3-[(2S,3R,4R,5R,6S)-6-methyl-3,4,5-tris(oxidanyl)oxan-2-yl]oxy-4,5-bis(oxidanyl)oxan-2-yl]oxy-5-oxidanyl-2,3-dihydrochromen-4-one

> <PUBCHEM_IUPAC_TRADITIONAL_NAME>
(2S)-7-[(2S,3R,4S,5S,6R)-4,5-dihydroxy-6-methylol-3-[(2S,3R,4R,5R,6S)-3,4,5-trihydroxy-6-methyl-tetrahydropyran-2-yl]oxy-tetrahydropyran-2-yl]oxy-2-(3,4-dihydroxyphenyl)-5-hydroxy-chroman-4-one

> <PUBCHEM_IUPAC_INCHI>
InChI=1S/C27H32O15/c1-9-20(33)22(35)24(37)26(38-9)42-25-23(36)21(34)18(8-28)41-27(25)39-11-5-14(31)19-15(32)7-16(40-17(19)6-11)10-2-3-12(29)13(30)4-10/h2-6,9,16,18,20-31,33-37H,7-8H2,1H3/t9-,16-,18+,20-,21+,22+,23-,24+,25+,26-,27+/m0/s1

> <PUBCHEM_IUPAC_INCHIKEY>
OBKKEZLIABHSGY-DOYQYKRZSA-N

> <PUBCHEM_XLOGP3_AA>
-0.9

> <PUBCHEM_EXACT_MASS>
596.17412031

> <PUBCHEM_MOLECULAR_FORMULA>
C27H32O15

> <PUBCHEM_MOLECULAR_WEIGHT>
596.5

> <PUBCHEM_OPENEYE_CAN_SMILES>
CC1C(C(C(C(O1)OC2C(C(C(OC2OC3=CC(=C4C(=O)CC(OC4=C3)C5=CC(=C(C=C5)O)O)O)CO)O)O)O)O)O

> <PUBCHEM_OPENEYE_ISO_SMILES>
C[C@H]1[C@@H]([C@H]([C@H]([C@@H](O1)O[C@@H]2[C@H]([C@@H]([C@H](O[C@H]2OC3=CC(=C4C(=O)C[C@H](OC4=C3)C5=CC(=C(C=C5)O)O)O)CO)O)O)O)O)O

> <PUBCHEM_CACTVS_TPSA>
245

> <PUBCHEM_MONOISOTOPIC_WEIGHT>
596.17412031

> <PUBCHEM_TOTAL_CHARGE>
0

> <PUBCHEM_HEAVY_ATOM_COUNT>
42

> <PUBCHEM_ATOM_DEF_STEREO_COUNT>
11

> <PUBCHEM_ATOM_UDEF_STEREO_COUNT>
0

> <PUBCHEM_BOND_DEF_STEREO_COUNT>
0

> <PUBCHEM_BOND_UDEF_STEREO_COUNT>
0

> <PUBCHEM_ISOTOPIC_ATOM_COUNT>
0

> <PUBCHEM_COMPONENT_COUNT>
1

> <PUBCHEM_CACTVS_TAUTO_COUNT>
90

> <PUBCHEM_COORDINATE_TYPE>
1
5
255

> <PUBCHEM_BONDANNOTATIONS>
16  1  6
19  1  6
22  26  5
25  27  5
28  29  8
28  30  8
29  31  8
30  34  8
31  32  8
32  34  8
33  37  5
37  38  8
37  39  8
38  40  8
39  41  8
20  4  5
40  42  8
41  42  8
17  5  5
18  6  6
21  7  5
23  8  5
24  9  6

$$$$
114776
  SciTegic09112316442D

 52 55  0  0  1  0            999 V2000
    5.1350    0.5148    0.0000 O   0  0
    6.8671    2.5148    0.0000 O   0  0
    5.1350    3.5148    0.0000 O   0  0
    3.4030    2.5148    0.0000 O   0  0
    2.5369    1.0148    0.0000 O   0  0
    7.7331    2.0148    0.0000 O   0  0
    6.0010   -0.9852    0.0000 O   0  0
    9.4931   -1.0199    0.0000 O   0  0
    9.4815    2.0494    0.0000 O   0  0
   12.1196   -3.5127    0.0000 O   0  0
   13.8555   -2.5194    0.0000 O   0  0
    6.0010    2.0148    0.0000 C   0  0  2  0  0  0
    5.1350    2.5148    0.0000 C   0  0  2  0  0  0
    6.0010    1.0148    0.0000 C   0  0  2  0  0  0
    4.2690    2.0148    0.0000 C   0  0  1  0  0  0
    4.2690    1.0148    0.0000 C   0  0  1  0  0  0
    6.8671    0.5148    0.0000 C   0  0
    3.4030    0.5148    0.0000 C   0  0
    7.7331    1.0148    0.0000 C   0  0
    6.8671   -0.4852    0.0000 C   0  0
    8.5991    0.5148    0.0000 C   0  0
    7.7331   -0.9852    0.0000 C   0  0
    8.5991   -0.4852    0.0000 C   0  0
    9.4931    1.0494    0.0000 C   0  0
   10.3991   -0.5060    0.0000 C   0  0
   10.3991    0.5356    0.0000 C   0  0
   11.2632   -1.0094    0.0000 C   0  0
   11.2594   -2.0094    0.0000 C   0  0
   12.1312   -0.5127    0.0000 C   0  0
   12.1235   -2.5127    0.0000 C   0  0
   12.9953   -1.0161    0.0000 C   0  0
   12.9914   -2.0160    0.0000 C   0  0
    6.5380    1.7048    0.0000 H   0  0
    5.6720    2.8248    0.0000 H   0  0
    6.0010    0.1648    0.0000 H   0  0
    4.2690    2.6348    0.0000 H   0  0
    4.2690    0.3948    0.0000 H   0  0
    3.0044    0.0398    0.0000 H   0  0
    3.8015    0.0398    0.0000 H   0  0
    6.8671    3.1348    0.0000 H   0  0
    4.5981    3.8248    0.0000 H   0  0
    3.4030    3.1348    0.0000 H   0  0
    7.7331   -1.6052    0.0000 H   0  0
    2.0000    0.7048    0.0000 H   0  0
    8.2700    2.3248    0.0000 H   0  0
    6.0010   -1.6052    0.0000 H   0  0
   10.9349    0.8477    0.0000 H   0  0
   10.7212   -2.3173    0.0000 H   0  0
   12.1336    0.1073    0.0000 H   0  0
   13.5334   -0.7081    0.0000 H   0  0
   12.6553   -3.8248    0.0000 H   0  0
   14.3936   -2.2115    0.0000 H   0  0
  1 14  1  0
  1 16  1  0
 12  2  1  1
  2 40  1  0
 13  3  1  6
  3 41  1  0
 15  4  1  1
  4 42  1  0
  5 18  1  0
  5 44  1  0
  6 19  1  0
  6 45  1  0
  7 20  1  0
  7 46  1  0
  8 23  1  0
  8 25  1  0
  9 24  2  0
 10 30  1  0
 10 51  1  0
 11 32  1  0
 11 52  1  0
 12 13  1  0
 12 14  1  0
 12 33  1  0
 13 15  1  0
 13 34  1  0
 14 17  1  0
 14 35  1  1
 15 16  1  0
 15 36  1  0
 16 18  1  6
 16 37  1  0
 17 19  2  0
 17 20  1  0
 18 38  1  0
 18 39  1  0
 19 21  1  0
 20 22  2  0
 21 23  2  0
 21 24  1  0
 22 23  1  0
 22 43  1  0
 24 26  1  0
 25 26  2  0
 25 27  1  0
 26 47  1  0
 27 28  2  0
 27 29  1  0
 28 30  1  0
 28 48  1  0
 29 31  2  0
 29 49  1  0
 30 32  2  0
 31 32  1  0
 31 50  1  0
M  END
> <Name>
114776

> <OBJECTID>
9223372968866021390

> <PUBCHEM_COMPOUND_CID>
114776

> <PUBCHEM_COMPOUND_CANONICALIZED>
1

> <PUBCHEM_CACTVS_COMPLEXITY>
729

> <PUBCHEM_CACTVS_HBOND_ACCEPTOR>
11

> <PUBCHEM_CACTVS_HBOND_DONOR>
8

> <PUBCHEM_CACTVS_ROTATABLE_BOND>
3

> <PUBCHEM_CACTVS_SUBSKEYS>
AAADceB4PAAAAAAAAAAAAAAAAAAAAAAAAAA0YIEAAAAAAACBQAAAGgAACAAADBSgmAIwBoAABgCIAqBSAAACCAAkIAAIiAEGiMgNNzaGNRqCeWGl4BULuQfI7PzOIAADCAAIQABAAAYQABCAAAAAAAAAAA==

> <PUBCHEM_IUPAC_OPENEYE_NAME>
2-(3,4-dihydroxyphenyl)-5,7-dihydroxy-6-[(2S,3R,4R,5S,6R)-3,4,5-trihydroxy-6-(hydroxymethyl)tetrahydropyran-2-yl]chromen-4-one

> <PUBCHEM_IUPAC_CAS_NAME>
2-(3,4-dihydroxyphenyl)-5,7-dihydroxy-6-[(2S,3R,4R,5S,6R)-3,4,5-trihydroxy-6-(hydroxymethyl)-2-oxanyl]-1-benzopyran-4-one

> <PUBCHEM_IUPAC_NAME_MARKUP>
2-(3,4-dihydroxyphenyl)-5,7-dihydroxy-6-[(2<I>S</I>,3<I>R</I>,4<I>R</I>,5<I>S</I>,6<I>R</I>)-3,4,5-trihydroxy-6-(hydroxymethyl)oxan-2-yl]chromen-4-one

> <PUBCHEM_IUPAC_NAME>
2-(3,4-dihydroxyphenyl)-5,7-dihydroxy-6-[(2S,3R,4R,5S,6R)-3,4,5-trihydroxy-6-(hydroxymethyl)oxan-2-yl]chromen-4-one

> <PUBCHEM_IUPAC_SYSTEMATIC_NAME>
2-[3,4-bis(oxidanyl)phenyl]-6-[(2S,3R,4R,5S,6R)-6-(hydroxymethyl)-3,4,5-tris(oxidanyl)oxan-2-yl]-5,7-bis(oxidanyl)chromen-4-one

> <PUBCHEM_IUPAC_TRADITIONAL_NAME>
2-(3,4-dihydroxyphenyl)-5,7-dihydroxy-6-[(2S,3R,4R,5S,6R)-3,4,5-trihydroxy-6-methylol-tetrahydropyran-2-yl]chromone

> <PUBCHEM_IUPAC_INCHI>
InChI=1S/C21H20O11/c22-6-14-17(27)19(29)20(30)21(32-14)16-11(26)5-13-15(18(16)28)10(25)4-12(31-13)7-1-2-8(23)9(24)3-7/h1-5,14,17,19-24,26-30H,6H2/t14-,17-,19+,20-,21+/m1/s1

> <PUBCHEM_IUPAC_INCHIKEY>
ODBRNZZJSYPIDI-VJXVFPJBSA-N

> <PUBCHEM_XLOGP3_AA>
-0.2

> <PUBCHEM_EXACT_MASS>
448.10056145

> <PUBCHEM_MOLECULAR_FORMULA>
C21H20O11

> <PUBCHEM_MOLECULAR_WEIGHT>
448.4

> <PUBCHEM_OPENEYE_CAN_SMILES>
C1=CC(=C(C=C1C2=CC(=O)C3=C(O2)C=C(C(=C3O)C4C(C(C(C(O4)CO)O)O)O)O)O)O

> <PUBCHEM_OPENEYE_ISO_SMILES>
C1=CC(=C(C=C1C2=CC(=O)C3=C(O2)C=C(C(=C3O)[C@H]4[C@@H]([C@H]([C@@H]([C@H](O4)CO)O)O)O)O)O)O

> <PUBCHEM_CACTVS_TPSA>
197

> <PUBCHEM_MONOISOTOPIC_WEIGHT>
448.10056145

> <PUBCHEM_TOTAL_CHARGE>
0

> <PUBCHEM_HEAVY_ATOM_COUNT>
32

> <PUBCHEM_ATOM_DEF_STEREO_COUNT>
5

> <PUBCHEM_ATOM_UDEF_STEREO_COUNT>
0

> <PUBCHEM_BOND_DEF_STEREO_COUNT>
0

> <PUBCHEM_BOND_UDEF_STEREO_COUNT>
0

> <PUBCHEM_ISOTOPIC_ATOM_COUNT>
0

> <PUBCHEM_COMPONENT_COUNT>
1

> <PUBCHEM_CACTVS_TAUTO_COUNT>
162

> <PUBCHEM_COORDINATE_TYPE>
1
5
255

> <PUBCHEM_BONDANNOTATIONS>
14  35  5
16  18  6
17  19  8
17  20  8
19  21  8
12  2  5
20  22  8
21  23  8
21  24  8
22  23  8
24  26  8
25  26  8
27  28  8
27  29  8
28  30  8
29  31  8
13  3  6
30  32  8
31  32  8
15  4  5
8  23  8
8  25  8

$$$$
122738
  SciTegic09112316442D

 68 73  0  0  1  0            999 V2000
    6.7942   -2.0968    0.0000 O   0  0
    9.5801    0.6877    0.0000 O   0  0
    5.8505    0.3751    0.0000 O   0  0
   11.3503    2.7465    0.0000 O   0  0
    5.9693    1.3961    0.0000 O   0  0
    7.8201    3.7224    0.0000 O   0  0
    9.9024   -0.1351    0.0000 O   0  0
   10.1030   -3.3268    0.0000 O   0  0
    3.4977   -3.5574    0.0000 O   0  0
    2.2120   -2.0253    0.0000 O   0  0
   12.2066   -1.8051    0.0000 O   0  0
   13.9425   -0.8118    0.0000 O   0  0
    7.4782   -0.2174    0.0000 C   0  0  1  0  0  0
    6.4933   -0.3910    0.0000 C   0  0  2  0  0  0
    7.8201    0.7224    0.0000 C   0  0
    6.1513   -1.3307    0.0000 C   0  0  1  0  0  0
    8.1209   -0.9834    0.0000 C   0  0
    8.6862    1.2224    0.0000 C   0  0
    8.6862    2.2224    0.0000 C   0  0
   10.4862    2.2432    0.0000 C   0  0  1  0  0  0
   10.4862    1.2015    0.0000 C   0  0  1  0  0  0
    9.5801    2.7570    0.0000 C   0  0
    7.7789   -1.9231    0.0000 C   0  0
    6.9541    1.2224    0.0000 C   0  0
    5.1665   -1.5044    0.0000 C   0  0
    7.8201    2.7224    0.0000 C   0  0
    9.1438   -0.7867    0.0000 C   0  0
    6.9541    2.2224    0.0000 C   0  0
   11.3503    0.6982    0.0000 C   0  0
    8.4360   -2.7312    0.0000 C   0  0
    9.8195   -1.5795    0.0000 C   0  0
    4.8245   -2.4441    0.0000 C   0  0
    9.4632   -2.5583    0.0000 C   0  0
    4.5237   -0.7383    0.0000 C   0  0
   11.3464   -0.3018    0.0000 C   0  0
   12.2182    1.1949    0.0000 C   0  0
    3.8397   -2.6177    0.0000 C   0  0
    3.5389   -0.9119    0.0000 C   0  0
    3.1969   -1.8516    0.0000 C   0  0
   12.2105   -0.8051    0.0000 C   0  0
   13.0823    0.6915    0.0000 C   0  0
   13.0784   -0.3085    0.0000 C   0  0
    6.9318    0.4337    0.0000 H   0  0
    5.8827   -0.4987    0.0000 H   0  0
    5.9393   -1.9133    0.0000 H   0  0
   11.0237    1.9342    0.0000 H   0  0
   11.0237    1.5105    0.0000 H   0  0
    9.9737    3.2360    0.0000 H   0  0
    9.1755    3.2268    0.0000 H   0  0
    6.4172    2.5324    0.0000 H   0  0
    5.2399    0.2674    0.0000 H   0  0
    8.2173   -3.3114    0.0000 H   0  0
   10.4296   -1.4694    0.0000 H   0  0
    5.2230   -2.9190    0.0000 H   0  0
    4.7357   -0.1557    0.0000 H   0  0
   11.3479    3.3665    0.0000 H   0  0
   10.8083   -0.6097    0.0000 H   0  0
   12.2206    1.8148    0.0000 H   0  0
    5.7573    1.9787    0.0000 H   0  0
    7.2832    4.0324    0.0000 H   0  0
   10.4874   -0.3404    0.0000 H   0  0
    3.1403   -0.4370    0.0000 H   0  0
   13.6204    0.9995    0.0000 H   0  0
    9.8887   -3.9086    0.0000 H   0  0
    3.8962   -4.0324    0.0000 H   0  0
    2.0000   -2.6079    0.0000 H   0  0
   12.7424   -2.1172    0.0000 H   0  0
   14.4807   -0.5039    0.0000 H   0  0
  1 16  1  0
  1 23  1  0
  2 18  1  0
  2 21  1  0
 14  3  1  6
  3 51  1  0
 20  4  1  1
  4 56  1  0
  5 24  1  0
  5 59  1  0
  6 26  1  0
  6 60  1  0
  7 27  1  0
  7 61  1  0
  8 33  1  0
  8 64  1  0
  9 37  1  0
  9 65  1  0
 10 39  1  0
 10 66  1  0
 11 40  1  0
 11 67  1  0
 12 42  1  0
 12 68  1  0
 13 14  1  0
 13 15  1  0
 13 17  1  0
 13 43  1  6
 14 16  1  0
 14 44  1  0
 15 18  1  0
 15 24  2  0
 16 25  1  6
 16 45  1  0
 17 23  1  0
 17 27  2  0
 18 19  2  0
 19 22  1  0
 19 26  1  0
 20 21  1  0
 20 22  1  0
 20 46  1  0
 21 29  1  1
 21 47  1  0
 22 48  1  0
 22 49  1  0
 23 30  2  0
 24 28  1  0
 25 32  2  0
 25 34  1  0
 26 28  2  0
 27 31  1  0
 28 50  1  0
 29 35  2  0
 29 36  1  0
 30 33  1  0
 30 52  1  0
 31 33  2  0
 31 53  1  0
 32 37  1  0
 32 54  1  0
 34 38  2  0
 34 55  1  0
 35 40  1  0
 35 57  1  0
 36 41  2  0
 36 58  1  0
 37 39  2  0
 38 39  1  0
 38 62  1  0
 40 42  2  0
 41 42  1  0
 41 63  1  0
M  END
> <Name>
122738

> <OBJECTID>
9223372973160988686

> <PUBCHEM_COMPOUND_CID>
122738

> <PUBCHEM_COMPOUND_CANONICALIZED>
1

> <PUBCHEM_CACTVS_COMPLEXITY>
925

> <PUBCHEM_CACTVS_HBOND_ACCEPTOR>
12

> <PUBCHEM_CACTVS_HBOND_DONOR>
10

> <PUBCHEM_CACTVS_ROTATABLE_BOND>
3

> <PUBCHEM_CACTVS_SUBSKEYS>
AAADceB4PAAAAAAAAAAAAAAAAAAAAAAAAAA0aMGCAAAAAACRVAAAGgAACAAADRSgmAIwBoAABgCAAiBCAAACCAAgIAAIiAAGiIgNNyKGMRqCeCGlwBULuAfA4PwOoAADCAAIQABAAAYQABCAAAAAAAAAAA==

> <PUBCHEM_IUPAC_OPENEYE_NAME>
(2R,3R)-2-(3,4-dihydroxyphenyl)-8-[(2R,3R,4R)-2-(3,4-dihydroxyphenyl)-3,5,7-trihydroxy-chroman-4-yl]chromane-3,5,7-triol

> <PUBCHEM_IUPAC_CAS_NAME>
(2R,3R)-2-(3,4-dihydroxyphenyl)-8-[(2R,3R,4R)-2-(3,4-dihydroxyphenyl)-3,5,7-trihydroxy-3,4-dihydro-2H-1-benzopyran-4-yl]-3,4-dihydro-2H-1-benzopyran-3,5,7-triol

> <PUBCHEM_IUPAC_NAME_MARKUP>
(2<I>R</I>,3<I>R</I>)-2-(3,4-dihydroxyphenyl)-8-[(2<I>R</I>,3<I>R</I>,4<I>R</I>)-2-(3,4-dihydroxyphenyl)-3,5,7-trihydroxy-3,4-dihydro-2<I>H</I>-chromen-4-yl]-3,4-dihydro-2<I>H</I>-chromene-3,5,7-triol

> <PUBCHEM_IUPAC_NAME>
(2R,3R)-2-(3,4-dihydroxyphenyl)-8-[(2R,3R,4R)-2-(3,4-dihydroxyphenyl)-3,5,7-trihydroxy-3,4-dihydro-2H-chromen-4-yl]-3,4-dihydro-2H-chromene-3,5,7-triol

> <PUBCHEM_IUPAC_SYSTEMATIC_NAME>
(2R,3R)-2-[3,4-bis(oxidanyl)phenyl]-8-[(2R,3R,4R)-2-[3,4-bis(oxidanyl)phenyl]-3,5,7-tris(oxidanyl)-3,4-dihydro-2H-chromen-4-yl]-3,4-dihydro-2H-chromene-3,5,7-triol

> <PUBCHEM_IUPAC_TRADITIONAL_NAME>
(2R,3R)-2-(3,4-dihydroxyphenyl)-8-[(2R,3R,4R)-2-(3,4-dihydroxyphenyl)-3,5,7-trihydroxy-chroman-4-yl]chroman-3,5,7-triol

> <PUBCHEM_IUPAC_INCHI>
InChI=1S/C30H26O12/c31-13-7-20(37)24-23(8-13)41-29(12-2-4-16(33)19(36)6-12)27(40)26(24)25-21(38)10-17(34)14-9-22(39)28(42-30(14)25)11-1-3-15(32)18(35)5-11/h1-8,10,22,26-29,31-40H,9H2/t22-,26-,27-,28-,29-/m1/s1

> <PUBCHEM_IUPAC_INCHIKEY>
XFZJEEAOWLFHDH-NFJBMHMQSA-N

> <PUBCHEM_XLOGP3_AA>
2.4

> <PUBCHEM_EXACT_MASS>
578.14242626

> <PUBCHEM_MOLECULAR_FORMULA>
C30H26O12

> <PUBCHEM_MOLECULAR_WEIGHT>
578.5

> <PUBCHEM_OPENEYE_CAN_SMILES>
C1C(C(OC2=C1C(=CC(=C2C3C(C(OC4=CC(=CC(=C34)O)O)C5=CC(=C(C=C5)O)O)O)O)O)C6=CC(=C(C=C6)O)O)O

> <PUBCHEM_OPENEYE_ISO_SMILES>
C1[C@H]([C@H](OC2=C1C(=CC(=C2[C@@H]3[C@H]([C@H](OC4=CC(=CC(=C34)O)O)C5=CC(=C(C=C5)O)O)O)O)O)C6=CC(=C(C=C6)O)O)O

> <PUBCHEM_CACTVS_TPSA>
221

> <PUBCHEM_MONOISOTOPIC_WEIGHT>
578.14242626

> <PUBCHEM_TOTAL_CHARGE>
0

> <PUBCHEM_HEAVY_ATOM_COUNT>
42

> <PUBCHEM_ATOM_DEF_STEREO_COUNT>
5

> <PUBCHEM_ATOM_UDEF_STEREO_COUNT>
0

> <PUBCHEM_BOND_DEF_STEREO_COUNT>
0

> <PUBCHEM_BOND_UDEF_STEREO_COUNT>
0

> <PUBCHEM_ISOTOPIC_ATOM_COUNT>
0

> <PUBCHEM_COMPONENT_COUNT>
1

> <PUBCHEM_CACTVS_TAUTO_COUNT>
986

> <PUBCHEM_COORDINATE_TYPE>
1
5
255

> <PUBCHEM_BONDANNOTATIONS>
13  43  6
15  18  8
15  24  8
16  25  6
17  23  8
17  27  8
18  19  8
19  26  8
21  29  5
23  30  8
24  28  8
25  32  8
25  34  8
26  28  8
27  31  8
29  35  8
29  36  8
14  3  6
30  33  8
31  33  8
32  37  8
34  38  8
35  40  8
36  41  8
37  39  8
38  39  8
20  4  5
40  42  8
41  42  8

$$$$
147394
  SciTegic09112316442D

 57 60  0  0  1  0            999 V2000
    5.1350   -1.8696    0.0000 O   0  0
    6.8671   -1.8696    0.0000 O   0  0
    5.1350   -4.8696    0.0000 O   0  0
    3.4030   -3.8696    0.0000 O   0  0
    6.8671   -3.8696    0.0000 O   0  0
    2.5369   -2.3696    0.0000 O   0  0
    8.6230    1.1930    0.0000 O   0  0
    5.1208    1.2096    0.0000 O   0  0
    6.0308    2.7030    0.0000 O   0  0
   12.0987    4.1796    0.0000 O   0  0
   12.0910    2.1796    0.0000 O   0  0
    5.1350   -3.8696    0.0000 C   0  0  1  0  0  0
    4.2690   -3.3696    0.0000 C   0  0  1  0  0  0
    6.0010   -3.3696    0.0000 C   0  0  2  0  0  0
    4.2690   -2.3696    0.0000 C   0  0  1  0  0  0
    6.0010   -2.3696    0.0000 C   0  0  1  0  0  0
    3.4030   -1.8696    0.0000 C   0  0
    6.8671   -0.8696    0.0000 C   0  0
    8.6269    2.1929    0.0000 C   0  0  1  0  0  0
    7.7628    2.6963    0.0000 C   0  0
    7.7551    0.6963    0.0000 C   0  0
    6.8910    1.1996    0.0000 C   0  0
    7.7671   -0.3453    0.0000 C   0  0
    6.8948    2.1996    0.0000 C   0  0
    5.9670   -0.3453    0.0000 C   0  0
    5.9790    0.6963    0.0000 C   0  0
    9.4948    2.6896    0.0000 C   0  0
   10.3589    2.1863    0.0000 C   0  0
    9.4987    3.6896    0.0000 C   0  0
   11.2269    2.6829    0.0000 C   0  0
   10.3666    4.1862    0.0000 C   0  0
   11.2307    3.6829    0.0000 C   0  0
   12.1025    5.1796    0.0000 C   0  0
    4.5981   -4.1796    0.0000 H   0  0
    4.2690   -3.9896    0.0000 H   0  0
    6.0010   -3.9896    0.0000 H   0  0
    4.2690   -1.7496    0.0000 H   0  0
    6.5380   -2.6796    0.0000 H   0  0
    3.8015   -1.3946    0.0000 H   0  0
    3.0044   -1.3946    0.0000 H   0  0
    4.5981   -5.1796    0.0000 H   0  0
    3.4030   -4.4896    0.0000 H   0  0
    6.8671   -4.4896    0.0000 H   0  0
    8.6293    2.8129    0.0000 H   0  0
    8.1632    3.1697    0.0000 H   0  0
    7.3661    3.1728    0.0000 H   0  0
    8.3064   -0.6511    0.0000 H   0  0
    5.4277   -0.6511    0.0000 H   0  0
    2.0000   -2.0596    0.0000 H   0  0
   10.3565    1.5663    0.0000 H   0  0
    8.9630    4.0017    0.0000 H   0  0
   10.3690    4.8062    0.0000 H   0  0
    4.5792    0.9079    0.0000 H   0  0
   12.6291    2.4875    0.0000 H   0  0
   12.7225    5.1772    0.0000 H   0  0
   12.1049    5.7996    0.0000 H   0  0
   11.4825    5.1819    0.0000 H   0  0
  1 15  1  0
  1 16  1  0
 16  2  1  1
  2 18  1  0
 12  3  1  1
  3 41  1  0
 13  4  1  6
  4 42  1  0
 14  5  1  6
  5 43  1  0
  6 17  1  0
  6 49  1  0
  7 19  1  0
  7 21  1  0
  8 26  1  0
  8 53  1  0
  9 24  2  0
 10 32  1  0
 10 33  1  0
 11 30  1  0
 11 54  1  0
 12 13  1  0
 12 14  1  0
 12 34  1  0
 13 15  1  0
 13 35  1  0
 14 16  1  0
 14 36  1  0
 15 17  1  1
 15 37  1  0
 16 38  1  0
 17 39  1  0
 17 40  1  0
 18 23  1  0
 18 25  2  0
 19 20  1  0
 19 27  1  1
 19 44  1  0
 20 24  1  0
 20 45  1  0
 20 46  1  0
 21 22  1  0
 21 23  2  0
 22 24  1  0
 22 26  2  0
 23 47  1  0
 25 26  1  0
 25 48  1  0
 27 28  2  0
 27 29  1  0
 28 30  1  0
 28 50  1  0
 29 31  2  0
 29 51  1  0
 30 32  2  0
 31 32  1  0
 31 52  1  0
 33 55  1  0
 33 56  1  0
 33 57  1  0
M  END
> <Name>
147394

> <OBJECTID>
9223372977455955982

> <PUBCHEM_COMPOUND_CID>
147394

> <PUBCHEM_COMPOUND_CANONICALIZED>
1

> <PUBCHEM_CACTVS_COMPLEXITY>
677

> <PUBCHEM_CACTVS_HBOND_ACCEPTOR>
11

> <PUBCHEM_CACTVS_HBOND_DONOR>
6

> <PUBCHEM_CACTVS_ROTATABLE_BOND>
5

> <PUBCHEM_CACTVS_SUBSKEYS>
AAADceB4PAAAAAAAAAAAAAAAAAAAAAAAAAA0aIEAAAAAAACRQAAAGgAACAAADBSwmAMyDoAABgCIAqBSAAACCAAkIAAIiAEGiMgdNzaGNRqieWOl4BUPuQfI7PzOIAABCAAIQABAAAIQABCAAAAAAAAAAA==

> <PUBCHEM_IUPAC_OPENEYE_NAME>
(2S)-5-hydroxy-2-(3-hydroxy-4-methoxy-phenyl)-7-[(2S,3R,4S,5S,6R)-3,4,5-trihydroxy-6-(hydroxymethyl)tetrahydropyran-2-yl]oxy-chroman-4-one

> <PUBCHEM_IUPAC_CAS_NAME>
(2S)-5-hydroxy-2-(3-hydroxy-4-methoxyphenyl)-7-[[(2S,3R,4S,5S,6R)-3,4,5-trihydroxy-6-(hydroxymethyl)-2-oxanyl]oxy]-3,4-dihydro-2H-1-benzopyran-4-one

> <PUBCHEM_IUPAC_NAME_MARKUP>
(2<I>S</I>)-5-hydroxy-2-(3-hydroxy-4-methoxyphenyl)-7-[(2<I>S</I>,3<I>R</I>,4<I>S</I>,5<I>S</I>,6<I>R</I>)-3,4,5-trihydroxy-6-(hydroxymethyl)oxan-2-yl]oxy-2,3-dihydrochromen-4-one

> <PUBCHEM_IUPAC_NAME>
(2S)-5-hydroxy-2-(3-hydroxy-4-methoxyphenyl)-7-[(2S,3R,4S,5S,6R)-3,4,5-trihydroxy-6-(hydroxymethyl)oxan-2-yl]oxy-2,3-dihydrochromen-4-one

> <PUBCHEM_IUPAC_SYSTEMATIC_NAME>
(2S)-7-[(2S,3R,4S,5S,6R)-6-(hydroxymethyl)-3,4,5-tris(oxidanyl)oxan-2-yl]oxy-2-(4-methoxy-3-oxidanyl-phenyl)-5-oxidanyl-2,3-dihydrochromen-4-one

> <PUBCHEM_IUPAC_TRADITIONAL_NAME>
(2S)-5-hydroxy-2-(3-hydroxy-4-methoxy-phenyl)-7-[(2S,3R,4S,5S,6R)-3,4,5-trihydroxy-6-methylol-tetrahydropyran-2-yl]oxy-chroman-4-one

> <PUBCHEM_IUPAC_INCHI>
InChI=1S/C22H24O11/c1-30-14-3-2-9(4-11(14)24)15-7-13(26)18-12(25)5-10(6-16(18)32-15)31-22-21(29)20(28)19(27)17(8-23)33-22/h2-6,15,17,19-25,27-29H,7-8H2,1H3/t15-,17+,19+,20-,21+,22+/m0/s1

> <PUBCHEM_IUPAC_INCHIKEY>
ADSYMQORONDIDD-ZJHVPRRPSA-N

> <PUBCHEM_XLOGP3_AA>
0.6

> <PUBCHEM_EXACT_MASS>
464.13186158

> <PUBCHEM_MOLECULAR_FORMULA>
C22H24O11

> <PUBCHEM_MOLECULAR_WEIGHT>
464.4

> <PUBCHEM_OPENEYE_CAN_SMILES>
COC1=C(C=C(C=C1)C2CC(=O)C3=C(C=C(C=C3O2)OC4C(C(C(C(O4)CO)O)O)O)O)O

> <PUBCHEM_OPENEYE_ISO_SMILES>
COC1=C(C=C(C=C1)[C@@H]2CC(=O)C3=C(C=C(C=C3O2)O[C@H]4[C@@H]([C@H]([C@@H]([C@H](O4)CO)O)O)O)O)O

> <PUBCHEM_CACTVS_TPSA>
175

> <PUBCHEM_MONOISOTOPIC_WEIGHT>
464.13186158

> <PUBCHEM_TOTAL_CHARGE>
0

> <PUBCHEM_HEAVY_ATOM_COUNT>
33

> <PUBCHEM_ATOM_DEF_STEREO_COUNT>
6

> <PUBCHEM_ATOM_UDEF_STEREO_COUNT>
0

> <PUBCHEM_BOND_DEF_STEREO_COUNT>
0

> <PUBCHEM_BOND_UDEF_STEREO_COUNT>
0

> <PUBCHEM_ISOTOPIC_ATOM_COUNT>
0

> <PUBCHEM_COMPONENT_COUNT>
1

> <PUBCHEM_CACTVS_TAUTO_COUNT>
27

> <PUBCHEM_COORDINATE_TYPE>
1
5
255

> <PUBCHEM_BONDANNOTATIONS>
15  17  5
18  23  8
18  25  8
19  27  5
16  2  5
21  22  8
21  23  8
22  26  8
25  26  8
27  28  8
27  29  8
28  30  8
29  31  8
12  3  5
30  32  8
31  32  8
13  4  6
14  5  6

$$$$
153001
  SciTegic09112316442D

 57 56  0  0  1  0            999 V2000
   13.7953    1.2500    0.0000 O   0  0
   12.9292   -1.2500    0.0000 O   0  0
   10.3312    1.2500    0.0000 O   0  0
    2.5369   -0.2500    0.0000 O   0  0
    3.4030    1.2500    0.0000 O   0  0
    8.5991    0.2500    0.0000 C   0  0
    7.7331   -0.2500    0.0000 C   0  0
   13.7953    0.2500    0.0000 C   0  0
    9.4651   -0.2500    0.0000 C   0  0
   14.6613   -0.2500    0.0000 C   0  0
    6.8671    0.2500    0.0000 C   0  0
   15.5273    0.2500    0.0000 C   0  0
   12.9292   -0.2500    0.0000 C   0  0
   10.3312    0.2500    0.0000 C   0  0
    6.0010   -0.2500    0.0000 C   0  0
   16.3933   -0.2500    0.0000 C   0  0
    5.1350    0.2500    0.0000 C   0  0
   12.0632    0.2500    0.0000 C   0  0
   11.1972   -0.2500    0.0000 C   0  0
   17.2594    0.2500    0.0000 C   0  0
    4.2690   -0.2500    0.0000 C   0  0
   18.1254   -0.2500    0.0000 C   0  0
    3.4030    0.2500    0.0000 C   0  0
    8.9976    0.7249    0.0000 H   0  0
    8.2006    0.7249    0.0000 H   0  0
    7.3346   -0.7249    0.0000 H   0  0
    8.1316   -0.7249    0.0000 H   0  0
   14.3322    0.5600    0.0000 H   0  0
   14.2628   -0.7249    0.0000 H   0  0
   15.0598   -0.7249    0.0000 H   0  0
    9.0666   -0.7249    0.0000 H   0  0
    9.8637   -0.7249    0.0000 H   0  0
    7.2656    0.7249    0.0000 H   0  0
    6.4685    0.7249    0.0000 H   0  0
   15.9258    0.7249    0.0000 H   0  0
   15.1288    0.7249    0.0000 H   0  0
   12.3923   -0.5600    0.0000 H   0  0
   10.8681    0.5600    0.0000 H   0  0
    5.6025   -0.7249    0.0000 H   0  0
    6.3996   -0.7249    0.0000 H   0  0
   15.9948   -0.7249    0.0000 H   0  0
   16.7919   -0.7249    0.0000 H   0  0
    5.5335    0.7249    0.0000 H   0  0
    4.7365    0.7249    0.0000 H   0  0
   12.0632    0.8700    0.0000 H   0  0
   11.1972   -0.8700    0.0000 H   0  0
   17.6579    0.7249    0.0000 H   0  0
   16.8608    0.7249    0.0000 H   0  0
    3.8705   -0.7249    0.0000 H   0  0
    4.6675   -0.7249    0.0000 H   0  0
   14.3322    1.5600    0.0000 H   0  0
   17.8154   -0.7869    0.0000 H   0  0
   18.6623   -0.5600    0.0000 H   0  0
   18.4354    0.2869    0.0000 H   0  0
   12.3923   -1.5600    0.0000 H   0  0
    9.7942    1.5600    0.0000 H   0  0
    2.0000    0.0600    0.0000 H   0  0
  1  8  1  0
  1 51  1  0
  2 13  1  0
  2 55  1  0
  3 14  1  0
  3 56  1  0
  4 23  1  0
  4 57  1  0
  5 23  2  0
  6  7  1  0
  6  9  1  0
  6 24  1  0
  6 25  1  0
  7 11  1  0
  7 26  1  0
  7 27  1  0
  8 10  1  0
  8 13  1  0
  8 28  1  0
  9 14  1  0
  9 31  1  0
  9 32  1  0
 10 12  1  0
 10 29  1  0
 10 30  1  0
 11 15  1  0
 11 33  1  0
 11 34  1  0
 12 16  1  0
 12 35  1  0
 12 36  1  0
 13 18  1  0
 13 37  1  0
 14 19  1  0
 14 38  1  0
 15 17  1  0
 15 39  1  0
 15 40  1  0
 16 20  1  0
 16 41  1  0
 16 42  1  0
 17 21  1  0
 17 43  1  0
 17 44  1  0
 18 19  2  3
 18 45  1  0
 19 46  1  0
 20 22  1  0
 20 47  1  0
 20 48  1  0
 21 23  1  0
 21 49  1  0
 21 50  1  0
 22 52  1  0
 22 53  1  0
 22 54  1  0
M  END
> <Name>
153001

> <OBJECTID>
9223372981750923278

> <PUBCHEM_COMPOUND_CID>
153001

> <PUBCHEM_COMPOUND_CANONICALIZED>
1

> <PUBCHEM_CACTVS_COMPLEXITY>
317

> <PUBCHEM_CACTVS_HBOND_ACCEPTOR>
5

> <PUBCHEM_CACTVS_HBOND_DONOR>
4

> <PUBCHEM_CACTVS_ROTATABLE_BOND>
15

> <PUBCHEM_CACTVS_SUBSKEYS>
AAADcfB4OAAAAAAAAAAAAAAAAAAAAAAAAAAAAAAAAAAAAAAAAAAAGgAACAAACBSggAICCAAAAgCIACDSCAAAAAAgAAAICAEAAAgBFBIAAQAAUAAEwAAJEAOIyKCAAAAAAAAAAAAAAAAAAAAAAAAAAAAAAA==

> <PUBCHEM_IUPAC_OPENEYE_NAME>
9,12,13-trihydroxyoctadec-10-enoic acid

> <PUBCHEM_IUPAC_CAS_NAME>
9,12,13-trihydroxy-10-octadecenoic acid

> <PUBCHEM_IUPAC_NAME_MARKUP>
9,12,13-trihydroxyoctadec-10-enoic acid

> <PUBCHEM_IUPAC_NAME>
9,12,13-trihydroxyoctadec-10-enoic acid

> <PUBCHEM_IUPAC_SYSTEMATIC_NAME>
9,12,13-tris(oxidanyl)octadec-10-enoic acid

> <PUBCHEM_IUPAC_TRADITIONAL_NAME>
9,12,13-trihydroxyoctadec-10-enoic acid

> <PUBCHEM_IUPAC_INCHI>
InChI=1S/C18H34O5/c1-2-3-7-11-16(20)17(21)14-13-15(19)10-8-5-4-6-9-12-18(22)23/h13-17,19-21H,2-12H2,1H3,(H,22,23)

> <PUBCHEM_IUPAC_INCHIKEY>
MDIUMSLCYIJBQC-UHFFFAOYSA-N

> <PUBCHEM_XLOGP3_AA>
3.1

> <PUBCHEM_EXACT_MASS>
330.24062418

> <PUBCHEM_MOLECULAR_FORMULA>
C18H34O5

> <PUBCHEM_MOLECULAR_WEIGHT>
330.5

> <PUBCHEM_OPENEYE_CAN_SMILES>
CCCCCC(C(C=CC(CCCCCCCC(=O)O)O)O)O

> <PUBCHEM_OPENEYE_ISO_SMILES>
CCCCCC(C(C=CC(CCCCCCCC(=O)O)O)O)O

> <PUBCHEM_CACTVS_TPSA>
98

> <PUBCHEM_MONOISOTOPIC_WEIGHT>
330.24062418

> <PUBCHEM_TOTAL_CHARGE>
0

> <PUBCHEM_HEAVY_ATOM_COUNT>
23

> <PUBCHEM_ATOM_DEF_STEREO_COUNT>
0

> <PUBCHEM_ATOM_UDEF_STEREO_COUNT>
3

> <PUBCHEM_BOND_DEF_STEREO_COUNT>
0

> <PUBCHEM_BOND_UDEF_STEREO_COUNT>
1

> <PUBCHEM_ISOTOPIC_ATOM_COUNT>
0

> <PUBCHEM_COMPONENT_COUNT>
1

> <PUBCHEM_CACTVS_TAUTO_COUNT>
1

> <PUBCHEM_COORDINATE_TYPE>
1
5
255

> <PUBCHEM_BONDANNOTATIONS>
8  1  3
18  19  1
13  2  3
14  3  3

$$$$
161557
  SciTegic09112316442D

 35 37  0  0  1  0            999 V2000
    6.0682   -0.2704    0.0000 O   0  0
    7.8003    1.7296    0.0000 O   0  0
    6.0682    2.7296    0.0000 O   0  0
    4.3198    2.7642    0.0000 O   0  0
   10.3984    0.2296    0.0000 O   0  0
    8.6663   -2.7704    0.0000 O   0  0
    2.5381   -0.2945    0.0000 O   0  0
   10.3984   -1.7704    0.0000 O   0  0
    6.9343    0.2296    0.0000 C   0  0  1  0  0  0
    6.9343    1.2296    0.0000 C   0  0  2  0  0  0
    7.8003   -0.2704    0.0000 C   0  0
    6.0682    1.7296    0.0000 C   0  0
    5.2022    1.2296    0.0000 C   0  0
    5.2022    0.2296    0.0000 C   0  0
    7.8003   -1.2704    0.0000 C   0  0
    8.6663    0.2296    0.0000 C   0  0
    4.3083    1.7643    0.0000 C   0  0
    4.3083   -0.3051    0.0000 C   0  0
    9.5323   -0.2704    0.0000 C   0  0
    8.6663   -1.7704    0.0000 C   0  0
    3.4022    1.2504    0.0000 C   0  0
    3.4022    0.2088    0.0000 C   0  0
    9.5323   -1.2704    0.0000 C   0  0
    6.9343   -0.3904    0.0000 H   0  0
    6.9343    1.8496    0.0000 H   0  0
    7.2634   -1.5804    0.0000 H   0  0
    8.6663    0.8496    0.0000 H   0  0
    4.3154   -0.9250    0.0000 H   0  0
    7.8003    2.3496    0.0000 H   0  0
    2.8665    1.5625    0.0000 H   0  0
    3.7865    3.0804    0.0000 H   0  0
   10.3984    0.8496    0.0000 H   0  0
    8.1294   -3.0804    0.0000 H   0  0
    2.0000    0.0134    0.0000 H   0  0
   10.3984   -2.3904    0.0000 H   0  0
  1  9  1  0
  1 14  1  0
 10  2  1  6
  2 29  1  0
  3 12  2  0
  4 17  1  0
  4 31  1  0
  5 19  1  0
  5 32  1  0
  6 20  1  0
  6 33  1  0
  7 22  1  0
  7 34  1  0
  8 23  1  0
  8 35  1  0
  9 10  1  0
  9 11  1  1
  9 24  1  0
 10 12  1  0
 10 25  1  0
 11 15  2  0
 11 16  1  0
 12 13  1  0
 13 14  1  0
 13 17  2  0
 14 18  2  0
 15 20  1  0
 15 26  1  0
 16 19  2  0
 16 27  1  0
 17 21  1  0
 18 22  1  0
 18 28  1  0
 19 23  1  0
 20 23  2  0
 21 22  2  0
 21 30  1  0
M  END
> <Name>
161557

> <OBJECTID>
9223372986045890574

> <PUBCHEM_COMPOUND_CID>
161557

> <PUBCHEM_COMPOUND_CANONICALIZED>
1

> <PUBCHEM_CACTVS_COMPLEXITY>
445

> <PUBCHEM_CACTVS_HBOND_ACCEPTOR>
8

> <PUBCHEM_CACTVS_HBOND_DONOR>
6

> <PUBCHEM_CACTVS_ROTATABLE_BOND>
1

> <PUBCHEM_CACTVS_SUBSKEYS>
AAADccBwPAAAAAAAAAAAAAAAAAAAAAAAAAA0YIAAAAAAAACRQAAAGgAACAAADBSgmAIwBoAABgCIAqBSAAICCAAkIAAAiAFGiMgNNzaGNRqCeWGl4BULuQfI7PzOIAABCAAIQABAAAIQABCAAAAAAAAAAA==

> <PUBCHEM_IUPAC_OPENEYE_NAME>
(2R,3R)-3,5,7-trihydroxy-2-(3,4,5-trihydroxyphenyl)chroman-4-one

> <PUBCHEM_IUPAC_CAS_NAME>
(2R,3R)-3,5,7-trihydroxy-2-(3,4,5-trihydroxyphenyl)-3,4-dihydro-2H-1-benzopyran-4-one

> <PUBCHEM_IUPAC_NAME_MARKUP>
(2<I>R</I>,3<I>R</I>)-3,5,7-trihydroxy-2-(3,4,5-trihydroxyphenyl)-2,3-dihydrochromen-4-one

> <PUBCHEM_IUPAC_NAME>
(2R,3R)-3,5,7-trihydroxy-2-(3,4,5-trihydroxyphenyl)-2,3-dihydrochromen-4-one

> <PUBCHEM_IUPAC_SYSTEMATIC_NAME>
(2R,3R)-3,5,7-tris(oxidanyl)-2-[3,4,5-tris(oxidanyl)phenyl]-2,3-dihydrochromen-4-one

> <PUBCHEM_IUPAC_TRADITIONAL_NAME>
(2R,3R)-3,5,7-trihydroxy-2-(3,4,5-trihydroxyphenyl)chroman-4-one

> <PUBCHEM_IUPAC_INCHI>
InChI=1S/C15H12O8/c16-6-3-7(17)11-10(4-6)23-15(14(22)13(11)21)5-1-8(18)12(20)9(19)2-5/h1-4,14-20,22H/t14-,15+/m0/s1

> <PUBCHEM_IUPAC_INCHIKEY>
KJXSIXMJHKAJOD-LSDHHAIUSA-N

> <PUBCHEM_XLOGP3_AA>
1.1

> <PUBCHEM_EXACT_MASS>
320.05321734

> <PUBCHEM_MOLECULAR_FORMULA>
C15H12O8

> <PUBCHEM_MOLECULAR_WEIGHT>
320.25

> <PUBCHEM_OPENEYE_CAN_SMILES>
C1=C(C=C(C(=C1O)O)O)C2C(C(=O)C3=C(C=C(C=C3O2)O)O)O

> <PUBCHEM_OPENEYE_ISO_SMILES>
C1=C(C=C(C(=C1O)O)O)[C@@H]2[C@H](C(=O)C3=C(C=C(C=C3O2)O)O)O

> <PUBCHEM_CACTVS_TPSA>
148

> <PUBCHEM_MONOISOTOPIC_WEIGHT>
320.05321734

> <PUBCHEM_TOTAL_CHARGE>
0

> <PUBCHEM_HEAVY_ATOM_COUNT>
23

> <PUBCHEM_ATOM_DEF_STEREO_COUNT>
2

> <PUBCHEM_ATOM_UDEF_STEREO_COUNT>
0

> <PUBCHEM_BOND_DEF_STEREO_COUNT>
0

> <PUBCHEM_BOND_UDEF_STEREO_COUNT>
0

> <PUBCHEM_ISOTOPIC_ATOM_COUNT>
0

> <PUBCHEM_COMPONENT_COUNT>
1

> <PUBCHEM_CACTVS_TAUTO_COUNT>
-1

> <PUBCHEM_COORDINATE_TYPE>
1
5
255

> <PUBCHEM_BONDANNOTATIONS>
11  15  8
11  16  8
13  14  8
13  17  8
14  18  8
15  20  8
16  19  8
17  21  8
18  22  8
19  23  8
10  2  6
20  23  8
21  22  8
9  11  5

$$$$
199472
  SciTegic09112316442D

 51 54  0  0  1  0            999 V2000
    6.0682   -1.7500    0.0000 O   0  0
    7.8003    0.2500    0.0000 O   0  0
    4.3198    1.2846    0.0000 O   0  0
    2.5381   -1.7742    0.0000 O   0  0
   10.3984   -1.2500    0.0000 O   0  0
    8.6663   -4.2500    0.0000 O   0  0
    6.9343    1.7500    0.0000 O   0  0
   10.3984   -3.2500    0.0000 O   0  0
   11.2644    1.2500    0.0000 O   0  0
    9.5323    4.2500    0.0000 O   0  0
   11.2644    3.2500    0.0000 O   0  0
    6.9343   -0.2500    0.0000 C   0  0  1  0  0  0
    6.9343   -1.2500    0.0000 C   0  0  2  0  0  0
    6.0682    0.2500    0.0000 C   0  0
    5.2022   -0.2500    0.0000 C   0  0
    7.8003   -1.7500    0.0000 C   0  0
    5.2022   -1.2500    0.0000 C   0  0
    4.3083    0.2847    0.0000 C   0  0
    4.3083   -1.7847    0.0000 C   0  0
    7.8003   -2.7500    0.0000 C   0  0
    8.6663   -1.2500    0.0000 C   0  0
    3.4022   -0.2292    0.0000 C   0  0
    3.4022   -1.2708    0.0000 C   0  0
    7.8003    1.2500    0.0000 C   0  0
    9.5323   -1.7500    0.0000 C   0  0
    8.6663   -3.2500    0.0000 C   0  0
    9.5323   -2.7500    0.0000 C   0  0
    8.6663    1.7500    0.0000 C   0  0
    8.6663    2.7500    0.0000 C   0  0
    9.5323    1.2500    0.0000 C   0  0
   10.3984    1.7500    0.0000 C   0  0
    9.5323    3.2500    0.0000 C   0  0
   10.3984    2.7500    0.0000 C   0  0
    6.9343    0.3700    0.0000 H   0  0
    6.9343   -1.8700    0.0000 H   0  0
    6.4668    0.7249    0.0000 H   0  0
    5.6697    0.7249    0.0000 H   0  0
    4.3154   -2.4046    0.0000 H   0  0
    7.2634   -3.0600    0.0000 H   0  0
    8.6663   -0.6300    0.0000 H   0  0
    2.8665    0.0829    0.0000 H   0  0
    3.7865    1.6008    0.0000 H   0  0
    2.0000   -1.4662    0.0000 H   0  0
    8.1294    3.0600    0.0000 H   0  0
    9.5323    0.6300    0.0000 H   0  0
   10.9353   -1.5600    0.0000 H   0  0
    8.1294   -4.5600    0.0000 H   0  0
   10.3984   -3.8700    0.0000 H   0  0
   11.8013    1.5600    0.0000 H   0  0
    8.9954    4.5600    0.0000 H   0  0
   11.2644    3.8700    0.0000 H   0  0
  1 13  1  0
  1 17  1  0
 12  2  1  1
  2 24  1  0
  3 18  1  0
  3 42  1  0
  4 23  1  0
  4 43  1  0
  5 25  1  0
  5 46  1  0
  6 26  1  0
  6 47  1  0
  7 24  2  0
  8 27  1  0
  8 48  1  0
  9 31  1  0
  9 49  1  0
 10 32  1  0
 10 50  1  0
 11 33  1  0
 11 51  1  0
 12 13  1  0
 12 14  1  0
 12 34  1  0
 13 16  1  6
 13 35  1  0
 14 15  1  0
 14 36  1  0
 14 37  1  0
 15 17  1  0
 15 18  2  0
 16 20  2  0
 16 21  1  0
 17 19  2  0
 18 22  1  0
 19 23  1  0
 19 38  1  0
 20 26  1  0
 20 39  1  0
 21 25  2  0
 21 40  1  0
 22 23  2  0
 22 41  1  0
 24 28  1  0
 25 27  1  0
 26 27  2  0
 28 29  2  0
 28 30  1  0
 29 32  1  0
 29 44  1  0
 30 31  2  0
 30 45  1  0
 31 33  1  0
 32 33  2  0
M  END
> <Name>
199472

> <OBJECTID>
9223372990340857870

> <PUBCHEM_COMPOUND_CID>
199472

> <PUBCHEM_COMPOUND_CANONICALIZED>
1

> <PUBCHEM_CACTVS_COMPLEXITY>
667

> <PUBCHEM_CACTVS_HBOND_ACCEPTOR>
11

> <PUBCHEM_CACTVS_HBOND_DONOR>
8

> <PUBCHEM_CACTVS_ROTATABLE_BOND>
4

> <PUBCHEM_CACTVS_SUBSKEYS>
AAADceB4PAAAAAAAAAAAAAAAAAAAAAAAAAA0YMEAAAAAAACRUAAAGgAACAAADBSgmAIwDoAABgCIAiDSCAACCAAkIAAAiAEGiMgNJzKGNRqCeSGlwBULuYfK7PzOIAABCAAIQABAAAIQABCAAAAAAAAAAA==

> <PUBCHEM_IUPAC_OPENEYE_NAME>
[(2S,3R)-5,7-dihydroxy-2-(3,4,5-trihydroxyphenyl)chroman-3-yl] 3,4,5-trihydroxybenzoate

> <PUBCHEM_IUPAC_CAS_NAME>
3,4,5-trihydroxybenzoic acid [(2S,3R)-5,7-dihydroxy-2-(3,4,5-trihydroxyphenyl)-3,4-dihydro-2H-1-benzopyran-3-yl] ester

> <PUBCHEM_IUPAC_NAME_MARKUP>
[(2<I>S</I>,3<I>R</I>)-5,7-dihydroxy-2-(3,4,5-trihydroxyphenyl)-3,4-dihydro-2<I>H</I>-chromen-3-yl] 3,4,5-trihydroxybenzoate

> <PUBCHEM_IUPAC_NAME>
[(2S,3R)-5,7-dihydroxy-2-(3,4,5-trihydroxyphenyl)-3,4-dihydro-2H-chromen-3-yl] 3,4,5-trihydroxybenzoate

> <PUBCHEM_IUPAC_SYSTEMATIC_NAME>
[(2S,3R)-5,7-bis(oxidanyl)-2-[3,4,5-tris(oxidanyl)phenyl]-3,4-dihydro-2H-chromen-3-yl] 3,4,5-tris(oxidanyl)benzoate

> <PUBCHEM_IUPAC_TRADITIONAL_NAME>
3,4,5-trihydroxybenzoic acid [(2S,3R)-5,7-dihydroxy-2-(3,4,5-trihydroxyphenyl)chroman-3-yl] ester

> <PUBCHEM_IUPAC_INCHI>
InChI=1S/C22H18O11/c23-10-5-12(24)11-7-18(33-22(31)9-3-15(27)20(30)16(28)4-9)21(32-17(11)6-10)8-1-13(25)19(29)14(26)2-8/h1-6,18,21,23-30H,7H2/t18-,21+/m1/s1

> <PUBCHEM_IUPAC_INCHIKEY>
WMBWREPUVVBILR-NQIIRXRSSA-N

> <PUBCHEM_XLOGP3>
1.2

> <PUBCHEM_EXACT_MASS>
458.08491139

> <PUBCHEM_MOLECULAR_FORMULA>
C22H18O11

> <PUBCHEM_MOLECULAR_WEIGHT>
458.4

> <PUBCHEM_OPENEYE_CAN_SMILES>
C1C(C(OC2=CC(=CC(=C21)O)O)C3=CC(=C(C(=C3)O)O)O)OC(=O)C4=CC(=C(C(=C4)O)O)O

> <PUBCHEM_OPENEYE_ISO_SMILES>
C1[C@H]([C@@H](OC2=CC(=CC(=C21)O)O)C3=CC(=C(C(=C3)O)O)O)OC(=O)C4=CC(=C(C(=C4)O)O)O

> <PUBCHEM_CACTVS_TPSA>
197

> <PUBCHEM_MONOISOTOPIC_WEIGHT>
458.08491139

> <PUBCHEM_TOTAL_CHARGE>
0

> <PUBCHEM_HEAVY_ATOM_COUNT>
33

> <PUBCHEM_ATOM_DEF_STEREO_COUNT>
2

> <PUBCHEM_ATOM_UDEF_STEREO_COUNT>
0

> <PUBCHEM_BOND_DEF_STEREO_COUNT>
0

> <PUBCHEM_BOND_UDEF_STEREO_COUNT>
0

> <PUBCHEM_ISOTOPIC_ATOM_COUNT>
0

> <PUBCHEM_COMPONENT_COUNT>
1

> <PUBCHEM_CACTVS_TAUTO_COUNT>
1000

> <PUBCHEM_COORDINATE_TYPE>
1
5
255

> <PUBCHEM_BONDANNOTATIONS>
13  16  6
15  17  8
15  18  8
16  20  8
16  21  8
17  19  8
18  22  8
19  23  8
12  2  5
20  26  8
21  25  8
22  23  8
25  27  8
26  27  8
28  29  8
28  30  8
29  32  8
30  31  8
31  33  8
32  33  8

$$$$
358832
  SciTegic09112316442D

 48 50  0  0  0  0            999 V2000
    6.3580   -0.1743    0.0000 O   0  0
    4.5981   -1.1396    0.0000 O   0  0
    2.8660   -0.1396    0.0000 O   0  0
    2.8660    1.8604    0.0000 O   0  0
    4.5981    2.8604    0.0000 O   0  0
    6.3465    2.8950    0.0000 O   0  0
    8.9846   -2.6671    0.0000 O   0  0
   10.7205   -1.6738    0.0000 O   0  0
    5.4641    1.3604    0.0000 C   0  0
    5.4641    0.3604    0.0000 C   0  0
    4.5981   -0.1396    0.0000 C   0  0
    7.2641    0.3396    0.0000 C   0  0
    4.5981    1.8604    0.0000 C   0  0
    3.7320    0.3604    0.0000 C   0  0
    6.3580    1.8951    0.0000 C   0  0
    3.7320    1.3604    0.0000 C   0  0
    8.1282   -0.1637    0.0000 C   0  0
    7.2641    1.3812    0.0000 C   0  0
    8.1244   -1.1637    0.0000 C   0  0
    8.9962    0.3329    0.0000 C   0  0
    8.9884   -1.6671    0.0000 C   0  0
    9.8564   -1.1704    0.0000 C   0  0
    9.8602   -0.1704    0.0000 C   0  0
    3.7320   -1.6396    0.0000 C   0  0
    2.0000    0.3604    0.0000 C   0  0
    2.0000    1.3604    0.0000 C   0  0
    9.8487   -3.1704    0.0000 C   0  0
   11.5884   -1.1771    0.0000 C   0  0
    7.7998    1.6933    0.0000 H   0  0
    7.5862   -1.4717    0.0000 H   0  0
    8.9985    0.9529    0.0000 H   0  0
   10.3984    0.1375    0.0000 H   0  0
    4.0611    3.1704    0.0000 H   0  0
    3.4220   -1.1027    0.0000 H   0  0
    3.1951   -1.9496    0.0000 H   0  0
    4.0420   -2.1765    0.0000 H   0  0
    2.3100    0.8973    0.0000 H   0  0
    1.4631    0.6704    0.0000 H   0  0
    1.6900   -0.1765    0.0000 H   0  0
    1.6900    1.8973    0.0000 H   0  0
    1.4631    1.0504    0.0000 H   0  0
    2.3100    0.8235    0.0000 H   0  0
    9.5366   -3.7061    0.0000 H   0  0
   10.3844   -3.4825    0.0000 H   0  0
   10.1607   -2.6347    0.0000 H   0  0
   11.8964   -1.7152    0.0000 H   0  0
   12.1266   -0.8692    0.0000 H   0  0
   11.2805   -0.6390    0.0000 H   0  0
  1 10  1  0
  1 12  1  0
  2 11  1  0
  2 24  1  0
  3 14  1  0
  3 25  1  0
  4 16  1  0
  4 26  1  0
  5 13  1  0
  5 33  1  0
  6 15  2  0
  7 21  1  0
  7 27  1  0
  8 22  1  0
  8 28  1  0
  9 10  1  0
  9 13  2  0
  9 15  1  0
 10 11  2  0
 11 14  1  0
 12 17  1  0
 12 18  2  0
 13 16  1  0
 14 16  2  0
 15 18  1  0
 17 19  2  0
 17 20  1  0
 18 29  1  0
 19 21  1  0
 19 30  1  0
 20 23  2  0
 20 31  1  0
 21 22  2  0
 22 23  1  0
 23 32  1  0
 24 34  1  0
 24 35  1  0
 24 36  1  0
 25 37  1  0
 25 38  1  0
 25 39  1  0
 26 40  1  0
 26 41  1  0
 26 42  1  0
 27 43  1  0
 27 44  1  0
 27 45  1  0
 28 46  1  0
 28 47  1  0
 28 48  1  0
M  END
> <Name>
358832

> <OBJECTID>
9223372994635825166

> <PUBCHEM_COMPOUND_CID>
358832

> <PUBCHEM_COMPOUND_CANONICALIZED>
1

> <PUBCHEM_CACTVS_COMPLEXITY>
579

> <PUBCHEM_CACTVS_HBOND_ACCEPTOR>
8

> <PUBCHEM_CACTVS_HBOND_DONOR>
1

> <PUBCHEM_CACTVS_ROTATABLE_BOND>
6

> <PUBCHEM_CACTVS_SUBSKEYS>
AAADceB4PAAAAAAAAAAAAAAAAAAAAAAAAAAwYIAAAAAAAACBQAAAGgAACAAADASAmAIyBoAABgCIAqBSAAACCAAkIAAIiAEGiMgNJzaGNRqCeWOl4BULuQfK7LzOIQABCAAIQABCAAIQABCAAAAAAAAAAA==

> <PUBCHEM_IUPAC_OPENEYE_NAME>
2-(3,4-dimethoxyphenyl)-5-hydroxy-6,7,8-trimethoxy-chromen-4-one

> <PUBCHEM_IUPAC_CAS_NAME>
2-(3,4-dimethoxyphenyl)-5-hydroxy-6,7,8-trimethoxy-1-benzopyran-4-one

> <PUBCHEM_IUPAC_NAME_MARKUP>
2-(3,4-dimethoxyphenyl)-5-hydroxy-6,7,8-trimethoxychromen-4-one

> <PUBCHEM_IUPAC_NAME>
2-(3,4-dimethoxyphenyl)-5-hydroxy-6,7,8-trimethoxychromen-4-one

> <PUBCHEM_IUPAC_SYSTEMATIC_NAME>
2-(3,4-dimethoxyphenyl)-6,7,8-trimethoxy-5-oxidanyl-chromen-4-one

> <PUBCHEM_IUPAC_TRADITIONAL_NAME>
2-(3,4-dimethoxyphenyl)-5-hydroxy-6,7,8-trimethoxy-chromone

> <PUBCHEM_IUPAC_INCHI>
InChI=1S/C20H20O8/c1-23-12-7-6-10(8-14(12)24-2)13-9-11(21)15-16(22)18(25-3)20(27-5)19(26-4)17(15)28-13/h6-9,22H,1-5H3

> <PUBCHEM_IUPAC_INCHIKEY>
DOFJNFPSMUCECH-UHFFFAOYSA-N

> <PUBCHEM_XLOGP3_AA>
3.2

> <PUBCHEM_EXACT_MASS>
388.11581759

> <PUBCHEM_MOLECULAR_FORMULA>
C20H20O8

> <PUBCHEM_MOLECULAR_WEIGHT>
388.4

> <PUBCHEM_OPENEYE_CAN_SMILES>
COC1=C(C=C(C=C1)C2=CC(=O)C3=C(C(=C(C(=C3O2)OC)OC)OC)O)OC

> <PUBCHEM_OPENEYE_ISO_SMILES>
COC1=C(C=C(C=C1)C2=CC(=O)C3=C(C(=C(C(=C3O2)OC)OC)OC)O)OC

> <PUBCHEM_CACTVS_TPSA>
92.7

> <PUBCHEM_MONOISOTOPIC_WEIGHT>
388.11581759

> <PUBCHEM_TOTAL_CHARGE>
0

> <PUBCHEM_HEAVY_ATOM_COUNT>
28

> <PUBCHEM_ATOM_DEF_STEREO_COUNT>
0

> <PUBCHEM_ATOM_UDEF_STEREO_COUNT>
0

> <PUBCHEM_BOND_DEF_STEREO_COUNT>
0

> <PUBCHEM_BOND_UDEF_STEREO_COUNT>
0

> <PUBCHEM_ISOTOPIC_ATOM_COUNT>
0

> <PUBCHEM_COMPONENT_COUNT>
1

> <PUBCHEM_CACTVS_TAUTO_COUNT>
4

> <PUBCHEM_COORDINATE_TYPE>
1
5
255

> <PUBCHEM_BONDANNOTATIONS>
1  10  8
1  12  8
10  11  8
11  14  8
12  18  8
13  16  8
14  16  8
15  18  8
17  19  8
17  20  8
19  21  8
20  23  8
21  22  8
22  23  8
9  10  8
9  13  8
9  15  8

$$$$
373677
  SciTegic09112316442D

 65 65  0  0  0  0            999 V2000
    3.7320    0.5179    0.0000 O   0  0
    7.1962    0.5179    0.0000 O   0  0
    5.4641   -2.4820    0.0000 O   0  0
    8.0622   -0.9821    0.0000 O   0  0
    5.4641    0.5179    0.0000 C   0  0
    5.9641    1.3840    0.0000 C   0  0
    4.9641    1.3840    0.0000 C   0  0
    4.5981    0.0179    0.0000 C   0  0
    6.3301    0.0179    0.0000 C   0  0
    4.5981   -0.9821    0.0000 C   0  0
    6.3301   -0.9821    0.0000 C   0  0
    5.4641   -1.4820    0.0000 C   0  0
    5.4641    2.2500    0.0000 C   0  0
    3.9641    1.3840    0.0000 C   0  0
    3.7320   -1.4820    0.0000 C   0  0
    7.1962   -1.4820    0.0000 C   0  0
    7.1962   -2.4820    0.0000 C   0  0
    5.9641    3.1160    0.0000 C   0  0
    3.4641    2.2500    0.0000 C   0  0
    3.7320   -2.4820    0.0000 C   0  0
    8.0622   -2.9820    0.0000 C   0  0
    6.3301   -2.9820    0.0000 C   0  0
    5.4641    3.9820    0.0000 C   0  0
    6.9641    3.1160    0.0000 C   0  0
    2.4641    2.2500    0.0000 C   0  0
    3.9641    3.1160    0.0000 C   0  0
    2.8660   -2.9820    0.0000 C   0  0
    2.8660   -3.9820    0.0000 C   0  0
    2.0000   -2.4820    0.0000 C   0  0
    6.4390    0.9854    0.0000 H   0  0
    6.4390    1.7825    0.0000 H   0  0
    5.5467    1.5960    0.0000 H   0  0
    4.8564    1.9946    0.0000 H   0  0
    4.8441    2.2500    0.0000 H   0  0
    3.6541    0.8470    0.0000 H   0  0
    3.5200   -0.8994    0.0000 H   0  0
    3.1215   -1.5897    0.0000 H   0  0
    6.6592   -2.1720    0.0000 H   0  0
    3.1951    0.2079    0.0000 H   0  0
    4.2690   -2.7920    0.0000 H   0  0
    4.9272   -2.7920    0.0000 H   0  0
    7.7522   -3.5190    0.0000 H   0  0
    8.5991   -3.2920    0.0000 H   0  0
    8.3722   -2.4451    0.0000 H   0  0
    6.0201   -2.4451    0.0000 H   0  0
    5.7932   -3.2920    0.0000 H   0  0
    6.6401   -3.5190    0.0000 H   0  0
    6.0010    4.2920    0.0000 H   0  0
    5.1541    4.5190    0.0000 H   0  0
    4.9272    3.6720    0.0000 H   0  0
    6.9641    2.4960    0.0000 H   0  0
    7.5841    3.1160    0.0000 H   0  0
    6.9641    3.7360    0.0000 H   0  0
    2.4641    2.8700    0.0000 H   0  0
    1.8441    2.2500    0.0000 H   0  0
    2.4641    1.6300    0.0000 H   0  0
    4.5010    2.8060    0.0000 H   0  0
    4.2741    3.6530    0.0000 H   0  0
    3.4272    3.4260    0.0000 H   0  0
    2.2460   -3.9820    0.0000 H   0  0
    2.8660   -4.6020    0.0000 H   0  0
    3.4860   -3.9820    0.0000 H   0  0
    2.3100   -1.9451    0.0000 H   0  0
    1.4631   -2.1720    0.0000 H   0  0
    1.6900   -3.0190    0.0000 H   0  0
  1  8  1  0
  1 39  1  0
  2  9  2  0
  3 12  1  0
  3 41  1  0
  4 16  2  0
  5  6  1  0
  5  7  1  0
  5  8  1  0
  5  9  1  0
  6 13  1  0
  6 30  1  0
  6 31  1  0
  7 14  1  0
  7 32  1  0
  7 33  1  0
  8 10  2  0
  9 11  1  0
 10 12  1  0
 10 15  1  0
 11 12  2  0
 11 16  1  0
 13 18  2  0
 13 34  1  0
 14 19  2  0
 14 35  1  0
 15 20  1  0
 15 36  1  0
 15 37  1  0
 16 17  1  0
 17 21  1  0
 17 22  1  0
 17 38  1  0
 18 23  1  0
 18 24  1  0
 19 25  1  0
 19 26  1  0
 20 27  2  0
 20 40  1  0
 21 42  1  0
 21 43  1  0
 21 44  1  0
 22 45  1  0
 22 46  1  0
 22 47  1  0
 23 48  1  0
 23 49  1  0
 23 50  1  0
 24 51  1  0
 24 52  1  0
 24 53  1  0
 25 54  1  0
 25 55  1  0
 25 56  1  0
 26 57  1  0
 26 58  1  0
 26 59  1  0
 27 28  1  0
 27 29  1  0
 28 60  1  0
 28 61  1  0
 28 62  1  0
 29 63  1  0
 29 64  1  0
 29 65  1  0
M  END
> <Name>
373677

> <OBJECTID>
9223372998930792462

> <PUBCHEM_COMPOUND_CID>
373677

> <PUBCHEM_COMPOUND_CANONICALIZED>
1

> <PUBCHEM_CACTVS_COMPLEXITY>
797

> <PUBCHEM_CACTVS_HBOND_ACCEPTOR>
4

> <PUBCHEM_CACTVS_HBOND_DONOR>
2

> <PUBCHEM_CACTVS_ROTATABLE_BOND>
8

> <PUBCHEM_CACTVS_SUBSKEYS>
AAADcfB4OAAAAAAAAAAAAAAAAAAAAAAAAAAgAAAAAAAAAAAAAAAAGgAACAAADwSAgAACAAAAAgCIAqBSAAAAAAAgIAAACAEAAEgIBBYIAQAAUAAEoAAIkQOIzOAPAAAAAAAAAAAAAAAAAAAAAAAAAAAAAA==

> <PUBCHEM_IUPAC_OPENEYE_NAME>
3,5-dihydroxy-4,6,6-tris(3-methylbut-2-enyl)-2-(2-methylpropanoyl)cyclohexa-2,4-dien-1-one

> <PUBCHEM_IUPAC_CAS_NAME>
3,5-dihydroxy-4,6,6-tris(3-methylbut-2-enyl)-2-(2-methyl-1-oxopropyl)-1-cyclohexa-2,4-dienone

> <PUBCHEM_IUPAC_NAME_MARKUP>
3,5-dihydroxy-4,6,6-tris(3-methylbut-2-enyl)-2-(2-methylpropanoyl)cyclohexa-2,4-dien-1-one

> <PUBCHEM_IUPAC_NAME>
3,5-dihydroxy-4,6,6-tris(3-methylbut-2-enyl)-2-(2-methylpropanoyl)cyclohexa-2,4-dien-1-one

> <PUBCHEM_IUPAC_SYSTEMATIC_NAME>
4,6,6-tris(3-methylbut-2-enyl)-2-(2-methylpropanoyl)-3,5-bis(oxidanyl)cyclohexa-2,4-dien-1-one

> <PUBCHEM_IUPAC_TRADITIONAL_NAME>
3,5-dihydroxy-2-isobutyryl-4,6,6-tris(3-methylbut-2-enyl)cyclohexa-2,4-dien-1-one

> <PUBCHEM_IUPAC_INCHI>
InChI=1S/C25H36O4/c1-15(2)9-10-19-22(27)20(21(26)18(7)8)24(29)25(23(19)28,13-11-16(3)4)14-12-17(5)6/h9,11-12,18,27-28H,10,13-14H2,1-8H3

> <PUBCHEM_IUPAC_INCHIKEY>
UNCDMWKTFLUPHZ-UHFFFAOYSA-N

> <PUBCHEM_XLOGP3_AA>
6.5

> <PUBCHEM_EXACT_MASS>
400.26135963

> <PUBCHEM_MOLECULAR_FORMULA>
C25H36O4

> <PUBCHEM_MOLECULAR_WEIGHT>
400.5

> <PUBCHEM_OPENEYE_CAN_SMILES>
CC(C)C(=O)C1=C(C(=C(C(C1=O)(CC=C(C)C)CC=C(C)C)O)CC=C(C)C)O

> <PUBCHEM_OPENEYE_ISO_SMILES>
CC(C)C(=O)C1=C(C(=C(C(C1=O)(CC=C(C)C)CC=C(C)C)O)CC=C(C)C)O

> <PUBCHEM_CACTVS_TPSA>
74.6

> <PUBCHEM_MONOISOTOPIC_WEIGHT>
400.26135963

> <PUBCHEM_TOTAL_CHARGE>
0

> <PUBCHEM_HEAVY_ATOM_COUNT>
29

> <PUBCHEM_ATOM_DEF_STEREO_COUNT>
0

> <PUBCHEM_ATOM_UDEF_STEREO_COUNT>
0

> <PUBCHEM_BOND_DEF_STEREO_COUNT>
0

> <PUBCHEM_BOND_UDEF_STEREO_COUNT>
0

> <PUBCHEM_ISOTOPIC_ATOM_COUNT>
0

> <PUBCHEM_COMPONENT_COUNT>
1

> <PUBCHEM_CACTVS_TAUTO_COUNT>
19

> <PUBCHEM_COORDINATE_TYPE>
1
5
255

$$$$
439246
  SciTegic09112316442D

 32 34  0  0  1  0            999 V2000
    6.0682   -0.9254    0.0000 O   0  0
    6.0682    2.0746    0.0000 O   0  0
    4.3198    2.1092    0.0000 O   0  0
    2.5381   -0.9495    0.0000 O   0  0
   10.3984   -2.4254    0.0000 O   0  0
    6.9343   -0.4254    0.0000 C   0  0  1  0  0  0
    6.9343    0.5746    0.0000 C   0  0
    7.8003   -0.9254    0.0000 C   0  0
    5.2022    0.5746    0.0000 C   0  0
    6.0682    1.0746    0.0000 C   0  0
    5.2022   -0.4254    0.0000 C   0  0
    4.3083    1.1093    0.0000 C   0  0
    4.3083   -0.9601    0.0000 C   0  0
    8.6663   -0.4254    0.0000 C   0  0
    7.8003   -1.9254    0.0000 C   0  0
    3.4022    0.5954    0.0000 C   0  0
    3.4022   -0.4462    0.0000 C   0  0
    9.5323   -0.9254    0.0000 C   0  0
    8.6663   -2.4254    0.0000 C   0  0
    9.5323   -1.9254    0.0000 C   0  0
    6.9343   -1.0454    0.0000 H   0  0
    7.5449    0.4669    0.0000 H   0  0
    7.1463    1.1572    0.0000 H   0  0
    4.3154   -1.5800    0.0000 H   0  0
    8.6663    0.1946    0.0000 H   0  0
    7.2634   -2.2354    0.0000 H   0  0
    2.8665    0.9075    0.0000 H   0  0
   10.0693   -0.6154    0.0000 H   0  0
    8.6663   -3.0454    0.0000 H   0  0
    3.7865    2.4254    0.0000 H   0  0
    2.0000   -0.6416    0.0000 H   0  0
   10.9353   -2.1154    0.0000 H   0  0
  1  6  1  0
  1 11  1  0
  2 10  2  0
  3 12  1  0
  3 30  1  0
  4 17  1  0
  4 31  1  0
  5 20  1  0
  5 32  1  0
  6  7  1  0
  6  8  1  1
  6 21  1  0
  7 10  1  0
  7 22  1  0
  7 23  1  0
  8 14  2  0
  8 15  1  0
  9 10  1  0
  9 11  1  0
  9 12  2  0
 11 13  2  0
 12 16  1  0
 13 17  1  0
 13 24  1  0
 14 18  1  0
 14 25  1  0
 15 19  2  0
 15 26  1  0
 16 17  2  0
 16 27  1  0
 18 20  2  0
 18 28  1  0
 19 20  1  0
 19 29  1  0
M  END
> <Name>
439246

> <OBJECTID>
9223373003225759758

> <PUBCHEM_COMPOUND_CID>
439246

> <PUBCHEM_COMPOUND_CANONICALIZED>
1

> <PUBCHEM_CACTVS_COMPLEXITY>
363

> <PUBCHEM_CACTVS_HBOND_ACCEPTOR>
5

> <PUBCHEM_CACTVS_HBOND_DONOR>
3

> <PUBCHEM_CACTVS_ROTATABLE_BOND>
1

> <PUBCHEM_CACTVS_SUBSKEYS>
AAADccBwOAAAAAAAAAAAAAAAAAAAAAAAAAA0YIAAAAAAAACRQAAAGgAACAAADBSgmAIwBoAABgCIAqBSAAACCAAkIAAIiAEGCMgMJzaGNRqCeWCl4BUIuQeI7OzOIAAACAAIAABAAAAQABAAAAAAAAAAAA==

> <PUBCHEM_IUPAC_OPENEYE_NAME>
(2S)-5,7-dihydroxy-2-(4-hydroxyphenyl)chroman-4-one

> <PUBCHEM_IUPAC_CAS_NAME>
(2S)-5,7-dihydroxy-2-(4-hydroxyphenyl)-3,4-dihydro-2H-1-benzopyran-4-one

> <PUBCHEM_IUPAC_NAME_MARKUP>
(2<I>S</I>)-5,7-dihydroxy-2-(4-hydroxyphenyl)-2,3-dihydrochromen-4-one

> <PUBCHEM_IUPAC_NAME>
(2S)-5,7-dihydroxy-2-(4-hydroxyphenyl)-2,3-dihydrochromen-4-one

> <PUBCHEM_IUPAC_SYSTEMATIC_NAME>
(2S)-2-(4-hydroxyphenyl)-5,7-bis(oxidanyl)-2,3-dihydrochromen-4-one

> <PUBCHEM_IUPAC_TRADITIONAL_NAME>
(2S)-5,7-dihydroxy-2-(4-hydroxyphenyl)chroman-4-one

> <PUBCHEM_IUPAC_INCHI>
InChI=1S/C15H12O5/c16-9-3-1-8(2-4-9)13-7-12(19)15-11(18)5-10(17)6-14(15)20-13/h1-6,13,16-18H,7H2/t13-/m0/s1

> <PUBCHEM_IUPAC_INCHIKEY>
FTVWIRXFELQLPI-ZDUSSCGKSA-N

> <PUBCHEM_XLOGP3_AA>
2.4

> <PUBCHEM_EXACT_MASS>
272.06847348

> <PUBCHEM_MOLECULAR_FORMULA>
C15H12O5

> <PUBCHEM_MOLECULAR_WEIGHT>
272.25

> <PUBCHEM_OPENEYE_CAN_SMILES>
C1C(OC2=CC(=CC(=C2C1=O)O)O)C3=CC=C(C=C3)O

> <PUBCHEM_OPENEYE_ISO_SMILES>
C1[C@H](OC2=CC(=CC(=C2C1=O)O)O)C3=CC=C(C=C3)O

> <PUBCHEM_CACTVS_TPSA>
87

> <PUBCHEM_MONOISOTOPIC_WEIGHT>
272.06847348

> <PUBCHEM_TOTAL_CHARGE>
0

> <PUBCHEM_HEAVY_ATOM_COUNT>
20

> <PUBCHEM_ATOM_DEF_STEREO_COUNT>
1

> <PUBCHEM_ATOM_UDEF_STEREO_COUNT>
0

> <PUBCHEM_BOND_DEF_STEREO_COUNT>
0

> <PUBCHEM_BOND_UDEF_STEREO_COUNT>
0

> <PUBCHEM_ISOTOPIC_ATOM_COUNT>
0

> <PUBCHEM_COMPONENT_COUNT>
1

> <PUBCHEM_CACTVS_TAUTO_COUNT>
-1

> <PUBCHEM_COORDINATE_TYPE>
1
5
255

> <PUBCHEM_BONDANNOTATIONS>
11  13  8
12  16  8
13  17  8
14  18  8
15  19  8
16  17  8
18  20  8
19  20  8
6  8  5
8  14  8
8  15  8
9  11  8
9  12  8

$$$$
442431
  SciTegic09112316442D

 73 77  0  0  1  0            999 V2000
    6.8671   -1.7787    0.0000 O   0  0
    6.0010   -4.2787    0.0000 O   0  0
    4.2690   -4.2787    0.0000 O   0  0
    7.7331   -4.2787    0.0000 O   0  0
    7.7331   -0.2787    0.0000 O   0  0
    9.4651   -3.2787    0.0000 O   0  0
    9.4651   -1.2787    0.0000 O   0  0
    6.0010   -6.2787    0.0000 O   0  0
    4.2690   -7.2787    0.0000 O   0  0
    2.5369   -6.2787    0.0000 O   0  0
    5.9589    2.7733    0.0000 O   0  0
    4.1934   -0.2514    0.0000 O   0  0
    3.3550    1.2833    0.0000 O   0  0
    5.1102    7.2766    0.0000 O   0  0
    6.8671   -2.7787    0.0000 C   0  0  1  0  0  0
    7.7331   -3.2787    0.0000 C   0  0  2  0  0  0
    8.5991   -2.7787    0.0000 C   0  0  1  0  0  0
    8.5991   -1.7787    0.0000 C   0  0  2  0  0  0
    5.1350   -5.7787    0.0000 C   0  0  1  0  0  0
    5.1350   -4.7787    0.0000 C   0  0  2  0  0  0
    4.2690   -6.2787    0.0000 C   0  0  1  0  0  0
    3.4030   -5.7787    0.0000 C   0  0  2  0  0  0
    7.7331   -1.2787    0.0000 C   0  0  1  0  0  0
    6.0010   -3.2787    0.0000 C   0  0
    3.4030   -4.7787    0.0000 C   0  0  2  0  0  0
    2.5369   -4.2787    0.0000 C   0  0
    6.8671    0.2213    0.0000 C   0  0
    6.8630    1.2630    0.0000 C   0  0
    5.9550    1.7733    0.0000 C   0  0
    5.9630   -0.2960    0.0000 C   0  0
    5.0871    1.2766    0.0000 C   0  0
    5.0948    3.2766    0.0000 C   0  0  1  0  0  0
    4.2268    2.7800    0.0000 C   0  0
    5.0670    0.2352    0.0000 C   0  0
    4.2230    1.7800    0.0000 C   0  0
    5.0986    4.2766    0.0000 C   0  0
    4.2345    4.7800    0.0000 C   0  0
    5.9666    4.7733    0.0000 C   0  0
    4.2384    5.7800    0.0000 C   0  0
    5.9704    5.7733    0.0000 C   0  0
    5.1063    6.2766    0.0000 C   0  0
    6.3301   -2.4687    0.0000 H   0  0
    8.2700   -3.5887    0.0000 H   0  0
    9.1360   -2.4687    0.0000 H   0  0
    8.5991   -1.1587    0.0000 H   0  0
    5.1350   -6.3987    0.0000 H   0  0
    5.1350   -4.1587    0.0000 H   0  0
    3.7320   -6.5887    0.0000 H   0  0
    3.4030   -6.3987    0.0000 H   0  0
    7.1962   -0.9687    0.0000 H   0  0
    5.7890   -2.6961    0.0000 H   0  0
    5.3905   -3.3863    0.0000 H   0  0
    3.4030   -4.1587    0.0000 H   0  0
    2.8469   -3.7417    0.0000 H   0  0
    2.0000   -3.9687    0.0000 H   0  0
    2.2269   -4.8156    0.0000 H   0  0
    8.2700   -4.5887    0.0000 H   0  0
   10.0021   -2.9687    0.0000 H   0  0
    9.4651   -0.6587    0.0000 H   0  0
    6.5380   -5.9687    0.0000 H   0  0
    3.7320   -7.5887    0.0000 H   0  0
    2.0000   -5.9687    0.0000 H   0  0
    7.3976    1.5771    0.0000 H   0  0
    5.9582   -0.9160    0.0000 H   0  0
    5.6329    3.5846    0.0000 H   0  0
    4.0170    3.3634    0.0000 H   0  0
    3.6158    2.6747    0.0000 H   0  0
    3.6964    4.4720    0.0000 H   0  0
    6.5023    4.4612    0.0000 H   0  0
    4.1838   -0.8713    0.0000 H   0  0
    3.7026    6.0920    0.0000 H   0  0
    6.5085    6.0812    0.0000 H   0  0
    4.5744    7.5887    0.0000 H   0  0
  1 15  1  0
  1 23  1  0
 20  2  1  1
  2 24  1  0
  3 20  1  0
  3 25  1  0
 16  4  1  6
  4 57  1  0
 23  5  1  1
  5 27  1  0
 17  6  1  1
  6 58  1  0
 18  7  1  6
  7 59  1  0
 19  8  1  6
  8 60  1  0
 21  9  1  6
  9 61  1  0
 22 10  1  1
 10 62  1  0
 11 29  1  0
 11 32  1  0
 12 34  1  0
 12 70  1  0
 13 35  2  0
 14 41  1  0
 14 73  1  0
 15 16  1  0
 15 24  1  1
 15 42  1  0
 16 17  1  0
 16 43  1  0
 17 18  1  0
 17 44  1  0
 18 23  1  0
 18 45  1  0
 19 20  1  0
 19 21  1  0
 19 46  1  0
 20 47  1  0
 21 22  1  0
 21 48  1  0
 22 25  1  0
 22 49  1  0
 23 50  1  0
 24 51  1  0
 24 52  1  0
 25 26  1  6
 25 53  1  0
 26 54  1  0
 26 55  1  0
 26 56  1  0
 27 28  1  0
 27 30  2  0
 28 29  2  0
 28 63  1  0
 29 31  1  0
 30 34  1  0
 30 64  1  0
 31 34  2  0
 31 35  1  0
 32 33  1  0
 32 36  1  1
 32 65  1  0
 33 35  1  0
 33 66  1  0
 33 67  1  0
 36 37  2  0
 36 38  1  0
 37 39  1  0
 37 68  1  0
 38 40  2  0
 38 69  1  0
 39 41  2  0
 39 71  1  0
 40 41  1  0
 40 72  1  0
M  END
> <Name>
442431

> <OBJECTID>
9223373007520727054

> <PUBCHEM_COMPOUND_CID>
442431

> <PUBCHEM_COMPOUND_CANONICALIZED>
1

> <PUBCHEM_CACTVS_COMPLEXITY>
884

> <PUBCHEM_CACTVS_HBOND_ACCEPTOR>
14

> <PUBCHEM_CACTVS_HBOND_DONOR>
8

> <PUBCHEM_CACTVS_ROTATABLE_BOND>
6

> <PUBCHEM_CACTVS_SUBSKEYS>
AAADcfB4PAAAAAAAAAAAAAAAAAAAAAAAAAA0aJECAAAAAACRQAAAGgAACAAADBSwmAMyDoAABgCIAqBSAAACCAAkIAAIiAEGCMgdNzaGNRqieWCl4BUPuQfI7OzOIAAACAAIAABAAAAQABAAAAAAAAAAAA==

> <PUBCHEM_IUPAC_OPENEYE_NAME>
(2S)-5-hydroxy-2-(4-hydroxyphenyl)-7-[(2S,3R,4S,5S,6R)-3,4,5-trihydroxy-6-[[(2R,3R,4R,5R,6S)-3,4,5-trihydroxy-6-methyl-tetrahydropyran-2-yl]oxymethyl]tetrahydropyran-2-yl]oxy-chroman-4-one

> <PUBCHEM_IUPAC_CAS_NAME>
(2S)-5-hydroxy-2-(4-hydroxyphenyl)-7-[[(2S,3R,4S,5S,6R)-3,4,5-trihydroxy-6-[[(2R,3R,4R,5R,6S)-3,4,5-trihydroxy-6-methyl-2-oxanyl]oxymethyl]-2-oxanyl]oxy]-3,4-dihydro-2H-1-benzopyran-4-one

> <PUBCHEM_IUPAC_NAME_MARKUP>
(2<I>S</I>)-5-hydroxy-2-(4-hydroxyphenyl)-7-[(2<I>S</I>,3<I>R</I>,4<I>S</I>,5<I>S</I>,6<I>R</I>)-3,4,5-trihydroxy-6-[[(2<I>R</I>,3<I>R</I>,4<I>R</I>,5<I>R</I>,6<I>S</I>)-3,4,5-trihydroxy-6-methyloxan-2-yl]oxymethyl]oxan-2-yl]oxy-2,3-dihydrochromen-4-one

> <PUBCHEM_IUPAC_NAME>
(2S)-5-hydroxy-2-(4-hydroxyphenyl)-7-[(2S,3R,4S,5S,6R)-3,4,5-trihydroxy-6-[[(2R,3R,4R,5R,6S)-3,4,5-trihydroxy-6-methyloxan-2-yl]oxymethyl]oxan-2-yl]oxy-2,3-dihydrochromen-4-one

> <PUBCHEM_IUPAC_SYSTEMATIC_NAME>
(2S)-2-(4-hydroxyphenyl)-7-[(2S,3R,4S,5S,6R)-6-[[(2R,3R,4R,5R,6S)-6-methyl-3,4,5-tris(oxidanyl)oxan-2-yl]oxymethyl]-3,4,5-tris(oxidanyl)oxan-2-yl]oxy-5-oxidanyl-2,3-dihydrochromen-4-one

> <PUBCHEM_IUPAC_TRADITIONAL_NAME>
(2S)-5-hydroxy-2-(4-hydroxyphenyl)-7-[(2S,3R,4S,5S,6R)-3,4,5-trihydroxy-6-[[(2R,3R,4R,5R,6S)-3,4,5-trihydroxy-6-methyl-tetrahydropyran-2-yl]oxymethyl]tetrahydropyran-2-yl]oxy-chroman-4-one

> <PUBCHEM_IUPAC_INCHI>
InChI=1S/C27H32O14/c1-10-20(31)22(33)24(35)26(38-10)37-9-18-21(32)23(34)25(36)27(41-18)39-13-6-14(29)19-15(30)8-16(40-17(19)7-13)11-2-4-12(28)5-3-11/h2-7,10,16,18,20-29,31-36H,8-9H2,1H3/t10-,16-,18+,20-,21+,22+,23-,24+,25+,26+,27+/m0/s1

> <PUBCHEM_IUPAC_INCHIKEY>
HXTFHSYLYXVTHC-AJHDJQPGSA-N

> <PUBCHEM_XLOGP3_AA>
-1.1

> <PUBCHEM_EXACT_MASS>
580.17920569

> <PUBCHEM_MOLECULAR_FORMULA>
C27H32O14

> <PUBCHEM_MOLECULAR_WEIGHT>
580.5

> <PUBCHEM_OPENEYE_CAN_SMILES>
CC1C(C(C(C(O1)OCC2C(C(C(C(O2)OC3=CC(=C4C(=O)CC(OC4=C3)C5=CC=C(C=C5)O)O)O)O)O)O)O)O

> <PUBCHEM_OPENEYE_ISO_SMILES>
C[C@H]1[C@@H]([C@H]([C@H]([C@@H](O1)OC[C@@H]2[C@H]([C@@H]([C@H]([C@@H](O2)OC3=CC(=C4C(=O)C[C@H](OC4=C3)C5=CC=C(C=C5)O)O)O)O)O)O)O)O

> <PUBCHEM_CACTVS_TPSA>
225

> <PUBCHEM_MONOISOTOPIC_WEIGHT>
580.17920569

> <PUBCHEM_TOTAL_CHARGE>
0

> <PUBCHEM_HEAVY_ATOM_COUNT>
41

> <PUBCHEM_ATOM_DEF_STEREO_COUNT>
11

> <PUBCHEM_ATOM_UDEF_STEREO_COUNT>
0

> <PUBCHEM_BOND_DEF_STEREO_COUNT>
0

> <PUBCHEM_BOND_UDEF_STEREO_COUNT>
0

> <PUBCHEM_ISOTOPIC_ATOM_COUNT>
0

> <PUBCHEM_COMPONENT_COUNT>
1

> <PUBCHEM_CACTVS_TAUTO_COUNT>
18

> <PUBCHEM_COORDINATE_TYPE>
1
5
255

> <PUBCHEM_BONDANNOTATIONS>
22  10  5
15  24  5
20  2  5
25  26  6
27  28  8
27  30  8
28  29  8
29  31  8
30  34  8
31  34  8
32  36  5
36  37  8
36  38  8
37  39  8
38  40  8
39  41  8
16  4  6
40  41  8
23  5  5
17  6  5
18  7  6
19  8  6
21  9  6

$$$$
445238
  SciTegic09112316442D

 27 27  0  0  1  0            999 V2000
    4.2690    1.0000    0.0000 O   0  0
    2.5369   -1.0000    0.0000 O   0  0
    4.2690   -2.0000    0.0000 O   0  0
    6.0010   -1.0000    0.0000 O   0  0
    6.0010    1.0000    0.0000 O   0  0
    2.5369    2.0000    0.0000 O   0  0
    3.4030   -0.5000    0.0000 C   0  0  1  0  0  0
    4.2690   -1.0000    0.0000 C   0  0  1  0  0  0
    3.4030    0.5000    0.0000 C   0  0  1  0  0  0
    5.1350   -0.5000    0.0000 C   0  0  2  0  0  0
    5.1350    0.5000    0.0000 C   0  0  1  0  0  0
    2.5369    1.0000    0.0000 C   0  0
    6.0010    2.0000    0.0000 C   0  0
    3.4030   -1.1200    0.0000 H   0  0
    3.7320   -1.3100    0.0000 H   0  0
    3.4030    1.1200    0.0000 H   0  0
    5.1350   -1.1200    0.0000 H   0  0
    5.1350    1.1200    0.0000 H   0  0
    1.9264    1.1077    0.0000 H   0  0
    2.3249    0.4174    0.0000 H   0  0
    2.0000   -0.6900    0.0000 H   0  0
    4.8059   -2.3100    0.0000 H   0  0
    6.5380   -0.6900    0.0000 H   0  0
    2.0000    2.3100    0.0000 H   0  0
    6.6210    2.0000    0.0000 H   0  0
    6.0010    2.6200    0.0000 H   0  0
    5.3810    2.0000    0.0000 H   0  0
  1  9  1  0
  1 11  1  0
  7  2  1  6
  2 21  1  0
  8  3  1  1
  3 22  1  0
 10  4  1  6
  4 23  1  0
 11  5  1  1
  5 13  1  0
  6 12  1  0
  6 24  1  0
  7  8  1  0
  7  9  1  0
  7 14  1  0
  8 10  1  0
  8 15  1  0
  9 12  1  1
  9 16  1  0
 10 11  1  0
 10 17  1  0
 11 18  1  0
 12 19  1  0
 12 20  1  0
 13 25  1  0
 13 26  1  0
 13 27  1  0
M  END
> <Name>
445238

> <OBJECTID>
9223373011815694350

> <PUBCHEM_COMPOUND_CID>
445238

> <PUBCHEM_COMPOUND_CANONICALIZED>
1

> <PUBCHEM_CACTVS_COMPLEXITY>
163

> <PUBCHEM_CACTVS_HBOND_ACCEPTOR>
6

> <PUBCHEM_CACTVS_HBOND_DONOR>
4

> <PUBCHEM_CACTVS_ROTATABLE_BOND>
2

> <PUBCHEM_CACTVS_SUBSKEYS>
AAADccBgOAAAAAAAAAAAAAAAAAAAAAAAAAAkAAAAAAAAAAAAAAAAGgAACAAACBSwgAMCCAAABgAAAAAAAAAAAAAAAAAAAAAAAAAREAIAAAAiQAAFAAAHAAHAYAwAAAAAAAAAAAAAAAAAAAAAAAAAAAAAAA==

> <PUBCHEM_IUPAC_OPENEYE_NAME>
(2R,3S,4S,5R,6R)-2-(hydroxymethyl)-6-methoxy-tetrahydropyran-3,4,5-triol

> <PUBCHEM_IUPAC_CAS_NAME>
(2R,3S,4S,5R,6R)-2-(hydroxymethyl)-6-methoxyoxane-3,4,5-triol

> <PUBCHEM_IUPAC_NAME_MARKUP>
(2<I>R</I>,3<I>S</I>,4<I>S</I>,5<I>R</I>,6<I>R</I>)-2-(hydroxymethyl)-6-methoxyoxane-3,4,5-triol

> <PUBCHEM_IUPAC_NAME>
(2R,3S,4S,5R,6R)-2-(hydroxymethyl)-6-methoxyoxane-3,4,5-triol

> <PUBCHEM_IUPAC_SYSTEMATIC_NAME>
(2R,3S,4S,5R,6R)-2-(hydroxymethyl)-6-methoxy-oxane-3,4,5-triol

> <PUBCHEM_IUPAC_TRADITIONAL_NAME>
(2R,3R,4S,5S,6R)-2-methoxy-6-methylol-tetrahydropyran-3,4,5-triol

> <PUBCHEM_IUPAC_INCHI>
InChI=1S/C7H14O6/c1-12-7-6(11)5(10)4(9)3(2-8)13-7/h3-11H,2H2,1H3/t3-,4-,5+,6-,7-/m1/s1

> <PUBCHEM_IUPAC_INCHIKEY>
HOVAGTYPODGVJG-XUUWZHRGSA-N

> <PUBCHEM_XLOGP3>
-2.2

> <PUBCHEM_EXACT_MASS>
194.07903816

> <PUBCHEM_MOLECULAR_FORMULA>
C7H14O6

> <PUBCHEM_MOLECULAR_WEIGHT>
194.18

> <PUBCHEM_OPENEYE_CAN_SMILES>
COC1C(C(C(C(O1)CO)O)O)O

> <PUBCHEM_OPENEYE_ISO_SMILES>
CO[C@H]1[C@@H]([C@H]([C@@H]([C@H](O1)CO)O)O)O

> <PUBCHEM_CACTVS_TPSA>
99.4

> <PUBCHEM_MONOISOTOPIC_WEIGHT>
194.07903816

> <PUBCHEM_TOTAL_CHARGE>
0

> <PUBCHEM_HEAVY_ATOM_COUNT>
13

> <PUBCHEM_ATOM_DEF_STEREO_COUNT>
5

> <PUBCHEM_ATOM_UDEF_STEREO_COUNT>
0

> <PUBCHEM_BOND_DEF_STEREO_COUNT>
0

> <PUBCHEM_BOND_UDEF_STEREO_COUNT>
0

> <PUBCHEM_ISOTOPIC_ATOM_COUNT>
0

> <PUBCHEM_COMPONENT_COUNT>
1

> <PUBCHEM_CACTVS_TAUTO_COUNT>
1

> <PUBCHEM_COORDINATE_TYPE>
1
5
255

> <PUBCHEM_BONDANNOTATIONS>
7  2  6
8  3  5
10  4  6
11  5  5
9  12  5

$$$$
656678
  SciTegic09112316442D

 98100  0  0  1  0            999 V2000
    1.4030   10.0424    0.0000 S   0  0
    8.4012    4.8918    0.0000 O   0  0
    8.4012   16.0849    0.0000 O   0  0
    8.9936    3.2642    0.0000 O   0  0
    8.9936   14.4573    0.0000 O   0  0
    5.5821    3.8658    0.0000 O   0  0
    5.5821   15.0588    0.0000 O   0  0
    2.2690   10.5424    0.0000 O   0  0
    0.5369    9.5424    0.0000 O   0  0
    0.9030   10.9085    0.0000 O   0  0
    1.9030    9.1764    0.0000 O   0  0
   16.4808    9.7548    0.0000 O   0  0
   10.9131    7.4889    0.0000 N   0  0
   10.9131   18.6819    0.0000 N   0  0
   11.3909    5.5403    0.0000 C   0  0  2  0  0  0
   11.3909   16.7334    0.0000 C   0  0  2  0  0  0
   11.6497    6.5062    0.0000 C   0  0  1  0  0  0
   11.6497   17.6993    0.0000 C   0  0  1  0  0  0
   12.7899    5.0315    0.0000 C   0  0
   12.7899   16.2245    0.0000 C   0  0
   13.0487    5.9974    0.0000 C   0  0
   13.0487   17.1905    0.0000 C   0  0
   10.1699    4.6747    0.0000 C   0  0
   10.1699   15.8677    0.0000 C   0  0
    9.6165    6.1951    0.0000 C   0  0
    9.6165   17.3881    0.0000 C   0  0
    9.3408    5.2338    0.0000 C   0  0
    9.3408   16.4269    0.0000 C   0  0
   10.4131    8.3549    0.0000 C   0  0
   10.4131   19.5479    0.0000 C   0  0
    8.2275    3.9070    0.0000 C   0  0
    8.2275   15.1001    0.0000 C   0  0
    7.2878    3.5650    0.0000 C   0  0
    7.2878   14.7580    0.0000 C   0  0
    6.5218    4.2078    0.0000 C   0  0
    6.5218   15.4008    0.0000 C   0  0
    7.1142    2.5802    0.0000 C   0  0
    7.1142   13.7732    0.0000 C   0  0
    7.8802    1.9374    0.0000 C   0  0
    7.8802   13.1304    0.0000 C   0  0
    6.1745    2.2382    0.0000 C   0  0
    6.1745   13.4312    0.0000 C   0  0
    7.7066    0.9526    0.0000 C   0  0
    7.7066   12.1456    0.0000 C   0  0
    6.0008    1.2534    0.0000 C   0  0
    6.0008   12.4464    0.0000 C   0  0
    6.7669    0.6106    0.0000 C   0  0
    6.7669   11.8036    0.0000 C   0  0
   11.1709    4.7193    0.0000 H   0  0
   11.1709   15.9123    0.0000 H   0  0
   11.8697    7.3273    0.0000 H   0  0
   11.8697   18.5203    0.0000 H   0  0
   12.5949    4.4429    0.0000 H   0  0
   13.3838    4.8537    0.0000 H   0  0
   12.5949   15.6360    0.0000 H   0  0
   13.3838   16.0468    0.0000 H   0  0
   13.6426    5.8196    0.0000 H   0  0
   13.2436    6.5860    0.0000 H   0  0
   13.6426   17.0127    0.0000 H   0  0
   13.2436   17.7790    0.0000 H   0  0
    9.7640    4.2059    0.0000 H   0  0
   10.5865    4.2155    0.0000 H   0  0
    9.7640   15.3990    0.0000 H   0  0
   10.5865   15.4086    0.0000 H   0  0
    9.6114    6.8151    0.0000 H   0  0
    9.0022    6.2789    0.0000 H   0  0
    9.6114   18.0081    0.0000 H   0  0
    9.0022   17.4719    0.0000 H   0  0
    8.8874    5.6567    0.0000 H   0  0
    8.8874   16.8497    0.0000 H   0  0
   10.9501    8.6649    0.0000 H   0  0
   10.1031    8.8918    0.0000 H   0  0
    9.8762    8.0449    0.0000 H   0  0
   10.9501   19.8579    0.0000 H   0  0
   10.1031   20.0849    0.0000 H   0  0
    9.8762   19.2379    0.0000 H   0  0
    6.7052    3.3530    0.0000 H   0  0
    7.3955   15.3686    0.0000 H   0  0
    6.9967    4.6063    0.0000 H   0  0
    6.2118    4.7447    0.0000 H   0  0
    6.9967   15.7994    0.0000 H   0  0
    6.2118   15.9378    0.0000 H   0  0
    8.4628    2.1495    0.0000 H   0  0
    8.4628   13.3425    0.0000 H   0  0
    5.6995    2.6367    0.0000 H   0  0
    5.6995   13.8297    0.0000 H   0  0
    5.1071    4.2643    0.0000 H   0  0
    5.1071   15.4573    0.0000 H   0  0
    8.1815    0.5541    0.0000 H   0  0
    8.1815   11.7471    0.0000 H   0  0
    5.4182    1.0413    0.0000 H   0  0
    5.4182   12.2344    0.0000 H   0  0
    6.6592    0.0000    0.0000 H   0  0
    6.6592   11.1930    0.0000 H   0  0
    2.8059   10.2324    0.0000 H   0  0
    0.0000    9.8524    0.0000 H   0  0
   17.0177   10.0648    0.0000 H   0  0
   15.9439   10.0648    0.0000 H   0  0
  1  8  1  0
  1  9  1  0
  1 10  2  0
  1 11  2  0
  2 27  1  0
  2 31  1  0
  3 28  1  0
  3 32  1  0
  4 31  2  0
  5 32  2  0
  6 35  1  0
  6 87  1  0
  7 36  1  0
  7 88  1  0
  8 95  1  0
  9 96  1  0
 12 97  1  0
 12 98  1  0
 13 15  1  0
 13 17  1  0
 13 29  1  0
 14 16  1  0
 14 18  1  0
 14 30  1  0
 15 19  1  0
 15 23  1  0
 15 49  1  1
 16 20  1  0
 16 24  1  0
 16 50  1  1
 17 21  1  0
 17 25  1  0
 17 51  1  6
 18 22  1  0
 18 26  1  0
 18 52  1  6
 19 21  1  0
 19 53  1  0
 19 54  1  0
 20 22  1  0
 20 55  1  0
 20 56  1  0
 21 57  1  0
 21 58  1  0
 22 59  1  0
 22 60  1  0
 23 27  1  0
 23 61  1  0
 23 62  1  0
 24 28  1  0
 24 63  1  0
 24 64  1  0
 25 27  1  0
 25 65  1  0
 25 66  1  0
 26 28  1  0
 26 67  1  0
 26 68  1  0
 27 69  1  0
 28 70  1  0
 29 71  1  0
 29 72  1  0
 29 73  1  0
 30 74  1  0
 30 75  1  0
 30 76  1  0
 31 33  1  0
 32 34  1  0
 33 35  1  0
 33 37  1  0
 33 77  1  0
 34 36  1  0
 34 38  1  0
 34 78  1  0
 35 79  1  0
 35 80  1  0
 36 81  1  0
 36 82  1  0
 37 39  2  0
 37 41  1  0
 38 40  2  0
 38 42  1  0
 39 43  1  0
 39 83  1  0
 40 44  1  0
 40 84  1  0
 41 45  2  0
 41 85  1  0
 42 46  2  0
 42 86  1  0
 43 47  2  0
 43 89  1  0
 44 48  2  0
 44 90  1  0
 45 47  1  0
 45 91  1  0
 46 48  1  0
 46 92  1  0
 47 93  1  0
 48 94  1  0
M  END
> <Name>
656678

> <OBJECTID>
9223373016110661646

> <PUBCHEM_COMPOUND_CID>
656678

> <PUBCHEM_COMPOUND_CANONICALIZED>
1

> <PUBCHEM_CACTVS_COMPLEXITY>
434

> <PUBCHEM_CACTVS_HBOND_ACCEPTOR>
13

> <PUBCHEM_CACTVS_HBOND_DONOR>
5

> <PUBCHEM_CACTVS_ROTATABLE_BOND>
10

> <PUBCHEM_CACTVS_SUBSKEYS>
AAADcfB/PABAAAAAAAAAAAAAAAAAAWLAAAA8eIEABgwAAAABQAAAHgAACAAADTzhmAYyCIMABoCIAiDSCDACAAAgAAAIiAEIAIgIMDaAlRCGYAAn4AGIiAeYyOCOgAAAAAAAAAAAAAAAAAAAAAAAAAAAAA==

> <PUBCHEM_IUPAC_OPENEYE_NAME>
[(1R,5S)-8-methyl-8-azabicyclo[3.2.1]octan-3-yl] 3-hydroxy-2-phenyl-propanoate;sulfuric acid;hydrate

> <PUBCHEM_IUPAC_CAS_NAME>
3-hydroxy-2-phenylpropanoic acid [(1R,5S)-8-methyl-8-azabicyclo[3.2.1]octan-3-yl] ester;sulfuric acid;hydrate

> <PUBCHEM_IUPAC_NAME_MARKUP>
[(1<I>R</I>,5<I>S</I>)-8-methyl-8-azabicyclo[3.2.1]octan-3-yl] 3-hydroxy-2-phenylpropanoate;sulfuric acid;hydrate

> <PUBCHEM_IUPAC_NAME>
[(1R,5S)-8-methyl-8-azabicyclo[3.2.1]octan-3-yl] 3-hydroxy-2-phenylpropanoate;sulfuric acid;hydrate

> <PUBCHEM_IUPAC_SYSTEMATIC_NAME>
[(1R,5S)-8-methyl-8-azabicyclo[3.2.1]octan-3-yl] 3-oxidanyl-2-phenyl-propanoate;sulfuric acid;hydrate

> <PUBCHEM_IUPAC_TRADITIONAL_NAME>
3-hydroxy-2-phenyl-propionic acid [(1R,5S)-8-methyl-8-azabicyclo[3.2.1]octan-3-yl] ester;sulfuric acid;hydrate

> <PUBCHEM_IUPAC_INCHI>
InChI=1S/2C17H23NO3.H2O4S.H2O/c2*1-18-13-7-8-14(18)10-15(9-13)21-17(20)16(11-19)12-5-3-2-4-6-12;1-5(2,3)4;/h2*2-6,13-16,19H,7-11H2,1H3;(H2,1,2,3,4);1H2/t2*13-,14+,15?,16?;;

> <PUBCHEM_IUPAC_INCHIKEY>
JPKKQJKQTPNWTR-BRYCGAMXSA-N

> <PUBCHEM_EXACT_MASS>
694.31353159

> <PUBCHEM_MOLECULAR_FORMULA>
C34H50N2O11S

> <PUBCHEM_MOLECULAR_WEIGHT>
694.8

> <PUBCHEM_OPENEYE_CAN_SMILES>
CN1C2CCC1CC(C2)OC(=O)C(CO)C3=CC=CC=C3.CN1C2CCC1CC(C2)OC(=O)C(CO)C3=CC=CC=C3.O.OS(=O)(=O)O

> <PUBCHEM_OPENEYE_ISO_SMILES>
CN1[C@@H]2CC[C@H]1CC(C2)OC(=O)C(CO)C3=CC=CC=C3.CN1[C@@H]2CC[C@H]1CC(C2)OC(=O)C(CO)C3=CC=CC=C3.O.OS(=O)(=O)O

> <PUBCHEM_CACTVS_TPSA>
184

> <PUBCHEM_MONOISOTOPIC_WEIGHT>
694.31353159

> <PUBCHEM_TOTAL_CHARGE>
0

> <PUBCHEM_HEAVY_ATOM_COUNT>
48

> <PUBCHEM_ATOM_DEF_STEREO_COUNT>
4

> <PUBCHEM_ATOM_UDEF_STEREO_COUNT>
2

> <PUBCHEM_BOND_DEF_STEREO_COUNT>
0

> <PUBCHEM_BOND_UDEF_STEREO_COUNT>
0

> <PUBCHEM_ISOTOPIC_ATOM_COUNT>
0

> <PUBCHEM_COMPONENT_COUNT>
4

> <PUBCHEM_CACTVS_TAUTO_COUNT>
-1

> <PUBCHEM_COORDINATE_TYPE>
1
5
255

> <PUBCHEM_BONDANNOTATIONS>
15  49  5
16  50  5
17  51  6
18  52  6
33  35  3
34  36  3
37  39  8
37  41  8
38  40  8
38  42  8
39  43  8
40  44  8
41  45  8
42  46  8
43  47  8
44  48  8
45  47  8
46  48  8

$$$$
5280343
  SciTegic09112316442D

 32 34  0  0  0  0            999 V2000
    6.0682   -0.2704    0.0000 O   0  0
    7.8003    1.7296    0.0000 O   0  0
    4.3198    2.7642    0.0000 O   0  0
    6.0682    2.7296    0.0000 O   0  0
    2.5381   -0.2945    0.0000 O   0  0
    8.6663   -2.7704    0.0000 O   0  0
   10.3984   -1.7704    0.0000 O   0  0
    5.2022    1.2296    0.0000 C   0  0
    5.2022    0.2296    0.0000 C   0  0
    6.9343    0.2296    0.0000 C   0  0
    7.8003   -0.2704    0.0000 C   0  0
    6.9343    1.2296    0.0000 C   0  0
    6.0682    1.7296    0.0000 C   0  0
    4.3083    1.7643    0.0000 C   0  0
    4.3083   -0.3051    0.0000 C   0  0
    3.4022    0.2088    0.0000 C   0  0
    7.8003   -1.2704    0.0000 C   0  0
    3.4022    1.2504    0.0000 C   0  0
    8.6663    0.2296    0.0000 C   0  0
    8.6663   -1.7704    0.0000 C   0  0
    9.5323   -0.2704    0.0000 C   0  0
    9.5323   -1.2704    0.0000 C   0  0
    4.3154   -0.9250    0.0000 H   0  0
    7.2634   -1.5804    0.0000 H   0  0
    2.8665    1.5625    0.0000 H   0  0
    8.6663    0.8496    0.0000 H   0  0
   10.0693    0.0396    0.0000 H   0  0
    7.8003    2.3496    0.0000 H   0  0
    3.7865    3.0804    0.0000 H   0  0
    2.0000    0.0134    0.0000 H   0  0
    8.1294   -3.0804    0.0000 H   0  0
   10.9353   -1.4604    0.0000 H   0  0
  1  9  1  0
  1 10  1  0
  2 12  1  0
  2 28  1  0
  3 14  1  0
  3 29  1  0
  4 13  2  0
  5 16  1  0
  5 30  1  0
  6 20  1  0
  6 31  1  0
  7 22  1  0
  7 32  1  0
  8  9  1  0
  8 13  1  0
  8 14  2  0
  9 15  2  0
 10 11  1  0
 10 12  2  0
 11 17  2  0
 11 19  1  0
 12 13  1  0
 14 18  1  0
 15 16  1  0
 15 23  1  0
 16 18  2  0
 17 20  1  0
 17 24  1  0
 18 25  1  0
 19 21  2  0
 19 26  1  0
 20 22  2  0
 21 22  1  0
 21 27  1  0
M  END
> <Name>
5280343

> <OBJECTID>
9223373020405628942

> <PUBCHEM_COMPOUND_CID>
5280343

> <PUBCHEM_COMPOUND_CANONICALIZED>
1

> <PUBCHEM_CACTVS_COMPLEXITY>
488

> <PUBCHEM_CACTVS_HBOND_ACCEPTOR>
7

> <PUBCHEM_CACTVS_HBOND_DONOR>
5

> <PUBCHEM_CACTVS_ROTATABLE_BOND>
1

> <PUBCHEM_CACTVS_SUBSKEYS>
AAADccBwOAAAAAAAAAAAAAAAAAAAAAAAAAAwYIAAAAAAAACBQAAAGgAACAAADASAmAAwBoAABgCIAqBSAAICCAAkIAAIiAFGiMgNJzaGNRqCeWGl4BUJuQfI7LzOIAABCAAIQABAAAIQABCAAAAAAAAAAA==

> <PUBCHEM_IUPAC_OPENEYE_NAME>
2-(3,4-dihydroxyphenyl)-3,5,7-trihydroxy-chromen-4-one

> <PUBCHEM_IUPAC_CAS_NAME>
2-(3,4-dihydroxyphenyl)-3,5,7-trihydroxy-1-benzopyran-4-one

> <PUBCHEM_IUPAC_NAME_MARKUP>
2-(3,4-dihydroxyphenyl)-3,5,7-trihydroxychromen-4-one

> <PUBCHEM_IUPAC_NAME>
2-(3,4-dihydroxyphenyl)-3,5,7-trihydroxychromen-4-one

> <PUBCHEM_IUPAC_SYSTEMATIC_NAME>
2-[3,4-bis(oxidanyl)phenyl]-3,5,7-tris(oxidanyl)chromen-4-one

> <PUBCHEM_IUPAC_TRADITIONAL_NAME>
2-(3,4-dihydroxyphenyl)-3,5,7-trihydroxy-chromone

> <PUBCHEM_IUPAC_INCHI>
InChI=1S/C15H10O7/c16-7-4-10(19)12-11(5-7)22-15(14(21)13(12)20)6-1-2-8(17)9(18)3-6/h1-5,16-19,21H

> <PUBCHEM_IUPAC_INCHIKEY>
REFJWTPEDVJJIY-UHFFFAOYSA-N

> <PUBCHEM_XLOGP3>
1.5

> <PUBCHEM_EXACT_MASS>
302.04265265

> <PUBCHEM_MOLECULAR_FORMULA>
C15H10O7

> <PUBCHEM_MOLECULAR_WEIGHT>
302.23

> <PUBCHEM_OPENEYE_CAN_SMILES>
C1=CC(=C(C=C1C2=C(C(=O)C3=C(C=C(C=C3O2)O)O)O)O)O

> <PUBCHEM_OPENEYE_ISO_SMILES>
C1=CC(=C(C=C1C2=C(C(=O)C3=C(C=C(C=C3O2)O)O)O)O)O

> <PUBCHEM_CACTVS_TPSA>
127

> <PUBCHEM_MONOISOTOPIC_WEIGHT>
302.04265265

> <PUBCHEM_TOTAL_CHARGE>
0

> <PUBCHEM_HEAVY_ATOM_COUNT>
22

> <PUBCHEM_ATOM_DEF_STEREO_COUNT>
0

> <PUBCHEM_ATOM_UDEF_STEREO_COUNT>
0

> <PUBCHEM_BOND_DEF_STEREO_COUNT>
0

> <PUBCHEM_BOND_UDEF_STEREO_COUNT>
0

> <PUBCHEM_ISOTOPIC_ATOM_COUNT>
0

> <PUBCHEM_COMPONENT_COUNT>
1

> <PUBCHEM_CACTVS_TAUTO_COUNT>
435

> <PUBCHEM_COORDINATE_TYPE>
1
5
255

> <PUBCHEM_BONDANNOTATIONS>
1  10  8
1  9  8
10  12  8
11  17  8
11  19  8
12  13  8
14  18  8
15  16  8
16  18  8
17  20  8
19  21  8
20  22  8
21  22  8
8  13  8
8  14  8
8  9  8
9  15  8

$$$$
5280441
  SciTegic09112316442D

 51 54  0  0  1  0            999 V2000
    5.1350   -1.0000    0.0000 O   0  0
    2.5369   -0.5000    0.0000 O   0  0
    2.5369   -2.5000    0.0000 O   0  0
    4.2690   -3.5000    0.0000 O   0  0
    6.0290    0.4653    0.0000 O   0  0
    6.0010   -3.5000    0.0000 O   0  0
    2.5369    0.5000    0.0000 O   0  0
    4.2690    3.5000    0.0000 O   0  0
    6.0174    3.5346    0.0000 O   0  0
   10.3914   -1.0341    0.0000 O   0  0
    3.4030   -1.0000    0.0000 C   0  0  2  0  0  0
    3.4030   -2.0000    0.0000 C   0  0  2  0  0  0
    4.2690   -0.5000    0.0000 C   0  0  2  0  0  0
    4.2690   -2.5000    0.0000 C   0  0  1  0  0  0
    5.1350   -2.0000    0.0000 C   0  0  1  0  0  0
    4.2690    0.5000    0.0000 C   0  0
    6.0010   -2.5000    0.0000 C   0  0
    5.1350    1.0000    0.0000 C   0  0
    3.4030    1.0000    0.0000 C   0  0
    5.1350    2.0000    0.0000 C   0  0
    3.4030    2.0000    0.0000 C   0  0
    4.2690    2.5000    0.0000 C   0  0
    6.0290    2.5347    0.0000 C   0  0
    6.9350    0.9792    0.0000 C   0  0
    6.9350    2.0208    0.0000 C   0  0
    7.7991    0.4758    0.0000 C   0  0
    8.6671    0.9725    0.0000 C   0  0
    7.7953   -0.5241    0.0000 C   0  0
    9.5312    0.4692    0.0000 C   0  0
    8.6594   -1.0275    0.0000 C   0  0
    9.5273   -0.5308    0.0000 C   0  0
    3.4030   -0.3800    0.0000 H   0  0
    3.4030   -2.6200    0.0000 H   0  0
    5.0051   -0.0750    0.0000 H   0  0
    4.8059   -2.8100    0.0000 H   0  0
    5.6720   -1.6900    0.0000 H   0  0
    6.6116   -2.6077    0.0000 H   0  0
    6.2131   -1.9174    0.0000 H   0  0
    2.0000   -0.8100    0.0000 H   0  0
    2.5369   -3.1200    0.0000 H   0  0
    3.7320   -3.8100    0.0000 H   0  0
    2.8660    2.3100    0.0000 H   0  0
    6.5380   -3.8100    0.0000 H   0  0
    7.4708    2.3329    0.0000 H   0  0
    2.0000    0.8100    0.0000 H   0  0
    3.7320    3.8100    0.0000 H   0  0
    8.6694    1.5925    0.0000 H   0  0
    7.2571   -0.8321    0.0000 H   0  0
   10.0693    0.7771    0.0000 H   0  0
    8.6570   -1.6475    0.0000 H   0  0
   10.9295   -0.7262    0.0000 H   0  0
  1 13  1  0
  1 15  1  0
 11  2  1  1
  2 39  1  0
 12  3  1  6
  3 40  1  0
 14  4  1  1
  4 41  1  0
  5 18  1  0
  5 24  1  0
  6 17  1  0
  6 43  1  0
  7 19  1  0
  7 45  1  0
  8 22  1  0
  8 46  1  0
  9 23  2  0
 10 31  1  0
 10 51  1  0
 11 12  1  0
 11 13  1  0
 11 32  1  0
 12 14  1  0
 12 33  1  0
 13 16  1  0
 13 34  1  1
 14 15  1  0
 14 35  1  0
 15 17  1  6
 15 36  1  0
 16 18  1  0
 16 19  2  0
 17 37  1  0
 17 38  1  0
 18 20  2  0
 19 21  1  0
 20 22  1  0
 20 23  1  0
 21 22  2  0
 21 42  1  0
 23 25  1  0
 24 25  2  0
 24 26  1  0
 25 44  1  0
 26 27  2  0
 26 28  1  0
 27 29  1  0
 27 47  1  0
 28 30  2  0
 28 48  1  0
 29 31  2  0
 29 49  1  0
 30 31  1  0
 30 50  1  0
M  END
> <Name>
5280441

> <OBJECTID>
9223373024700596238

> <PUBCHEM_COMPOUND_CID>
5280441

> <PUBCHEM_COMPOUND_CANONICALIZED>
1

> <PUBCHEM_CACTVS_COMPLEXITY>
690

> <PUBCHEM_CACTVS_HBOND_ACCEPTOR>
10

> <PUBCHEM_CACTVS_HBOND_DONOR>
7

> <PUBCHEM_CACTVS_ROTATABLE_BOND>
3

> <PUBCHEM_CACTVS_SUBSKEYS>
AAADceB4PAAAAAAAAAAAAAAAAAAAAAAAAAA0YIEAAAAAAACBQAAAGgAACAAADBSgmAIwBoAABgCIAqBSAAACCAAkIAAIiAEGCMgNNzaGNRqCeWCl4BULuQfI7PzOIAACCAAIAABAAAQQABAAAAAAAAAAAA==

> <PUBCHEM_IUPAC_OPENEYE_NAME>
5,7-dihydroxy-2-(4-hydroxyphenyl)-8-[(2S,3R,4R,5S,6R)-3,4,5-trihydroxy-6-(hydroxymethyl)tetrahydropyran-2-yl]chromen-4-one

> <PUBCHEM_IUPAC_CAS_NAME>
5,7-dihydroxy-2-(4-hydroxyphenyl)-8-[(2S,3R,4R,5S,6R)-3,4,5-trihydroxy-6-(hydroxymethyl)-2-oxanyl]-1-benzopyran-4-one

> <PUBCHEM_IUPAC_NAME_MARKUP>
5,7-dihydroxy-2-(4-hydroxyphenyl)-8-[(2<I>S</I>,3<I>R</I>,4<I>R</I>,5<I>S</I>,6<I>R</I>)-3,4,5-trihydroxy-6-(hydroxymethyl)oxan-2-yl]chromen-4-one

> <PUBCHEM_IUPAC_NAME>
5,7-dihydroxy-2-(4-hydroxyphenyl)-8-[(2S,3R,4R,5S,6R)-3,4,5-trihydroxy-6-(hydroxymethyl)oxan-2-yl]chromen-4-one

> <PUBCHEM_IUPAC_SYSTEMATIC_NAME>
8-[(2S,3R,4R,5S,6R)-6-(hydroxymethyl)-3,4,5-tris(oxidanyl)oxan-2-yl]-2-(4-hydroxyphenyl)-5,7-bis(oxidanyl)chromen-4-one

> <PUBCHEM_IUPAC_TRADITIONAL_NAME>
5,7-dihydroxy-2-(4-hydroxyphenyl)-8-[(2S,3R,4R,5S,6R)-3,4,5-trihydroxy-6-methylol-tetrahydropyran-2-yl]chromone

> <PUBCHEM_IUPAC_INCHI>
InChI=1S/C21H20O10/c22-7-14-17(27)18(28)19(29)21(31-14)16-11(25)5-10(24)15-12(26)6-13(30-20(15)16)8-1-3-9(23)4-2-8/h1-6,14,17-19,21-25,27-29H,7H2/t14-,17-,18+,19-,21+/m1/s1

> <PUBCHEM_IUPAC_INCHIKEY>
SGEWCQFRYRRZDC-VPRICQMDSA-N

> <PUBCHEM_XLOGP3_AA>
0.2

> <PUBCHEM_EXACT_MASS>
432.10564683

> <PUBCHEM_MOLECULAR_FORMULA>
C21H20O10

> <PUBCHEM_MOLECULAR_WEIGHT>
432.4

> <PUBCHEM_OPENEYE_CAN_SMILES>
C1=CC(=CC=C1C2=CC(=O)C3=C(O2)C(=C(C=C3O)O)C4C(C(C(C(O4)CO)O)O)O)O

> <PUBCHEM_OPENEYE_ISO_SMILES>
C1=CC(=CC=C1C2=CC(=O)C3=C(O2)C(=C(C=C3O)O)[C@H]4[C@@H]([C@H]([C@@H]([C@H](O4)CO)O)O)O)O

> <PUBCHEM_CACTVS_TPSA>
177

> <PUBCHEM_MONOISOTOPIC_WEIGHT>
432.10564683

> <PUBCHEM_TOTAL_CHARGE>
0

> <PUBCHEM_HEAVY_ATOM_COUNT>
31

> <PUBCHEM_ATOM_DEF_STEREO_COUNT>
5

> <PUBCHEM_ATOM_UDEF_STEREO_COUNT>
0

> <PUBCHEM_BOND_DEF_STEREO_COUNT>
0

> <PUBCHEM_BOND_UDEF_STEREO_COUNT>
0

> <PUBCHEM_ISOTOPIC_ATOM_COUNT>
0

> <PUBCHEM_COMPONENT_COUNT>
1

> <PUBCHEM_CACTVS_TAUTO_COUNT>
57

> <PUBCHEM_COORDINATE_TYPE>
1
5
255

> <PUBCHEM_BONDANNOTATIONS>
13  34  5
15  17  6
16  18  8
16  19  8
18  20  8
19  21  8
11  2  5
20  22  8
20  23  8
21  22  8
23  25  8
24  25  8
26  27  8
26  28  8
27  29  8
28  30  8
29  31  8
12  3  6
30  31  8
14  4  5
5  18  8
5  24  8

$$$$
5280450
  SciTegic09112316442D

 52 51  0  0  0  0            999 V2000
    2.5369   -2.2500    0.0000 O   0  0
    3.4030   -3.7500    0.0000 O   0  0
    6.8671   -2.7500    0.0000 C   0  0
    7.7331   -2.2500    0.0000 C   0  0
    6.0010   -2.2500    0.0000 C   0  0
    8.5991   -2.7500    0.0000 C   0  0
    5.1350   -2.7500    0.0000 C   0  0
    9.4651   -2.2500    0.0000 C   0  0
    4.2690   -2.2500    0.0000 C   0  0
   11.1972    1.7500    0.0000 C   0  0
   10.3312    2.2500    0.0000 C   0  0
   10.3312   -2.7500    0.0000 C   0  0
   11.1972    0.7500    0.0000 C   0  0
   10.3312    3.2500    0.0000 C   0  0
   11.1972   -2.2500    0.0000 C   0  0
   11.1972   -1.2500    0.0000 C   0  0
   12.0632    0.2500    0.0000 C   0  0
    3.4030   -2.7500    0.0000 C   0  0
   12.0632   -0.7500    0.0000 C   0  0
    9.4651    3.7500    0.0000 C   0  0
    6.4685   -3.2250    0.0000 H   0  0
    7.2656   -3.2250    0.0000 H   0  0
    8.1316   -1.7750    0.0000 H   0  0
    7.3346   -1.7750    0.0000 H   0  0
    6.3996   -1.7750    0.0000 H   0  0
    5.6025   -1.7750    0.0000 H   0  0
    8.2006   -3.2250    0.0000 H   0  0
    8.9976   -3.2250    0.0000 H   0  0
    4.7365   -3.2250    0.0000 H   0  0
    5.5335   -3.2250    0.0000 H   0  0
    9.8637   -1.7750    0.0000 H   0  0
    9.0666   -1.7750    0.0000 H   0  0
    4.6675   -1.7750    0.0000 H   0  0
    3.8705   -1.7750    0.0000 H   0  0
   11.8078    1.6423    0.0000 H   0  0
   11.4092    2.3326    0.0000 H   0  0
    9.7206    2.3577    0.0000 H   0  0
   10.1191    1.6674    0.0000 H   0  0
   10.3312   -3.3700    0.0000 H   0  0
   10.5866    0.8577    0.0000 H   0  0
   10.9851    0.1674    0.0000 H   0  0
   10.9417    3.1423    0.0000 H   0  0
   10.5432    3.8326    0.0000 H   0  0
   11.7341   -2.5600    0.0000 H   0  0
   10.9851   -0.6674    0.0000 H   0  0
   10.5866   -1.3577    0.0000 H   0  0
   12.6002    0.5600    0.0000 H   0  0
   12.6002   -1.0600    0.0000 H   0  0
    9.7751    4.2869    0.0000 H   0  0
    8.9282    4.0600    0.0000 H   0  0
    9.1551    3.2131    0.0000 H   0  0
    2.0000   -2.5600    0.0000 H   0  0
  1 18  1  0
  1 52  1  0
  2 18  2  0
  3  4  1  0
  3  5  1  0
  3 21  1  0
  3 22  1  0
  4  6  1  0
  4 23  1  0
  4 24  1  0
  5  7  1  0
  5 25  1  0
  5 26  1  0
  6  8  1  0
  6 27  1  0
  6 28  1  0
  7  9  1  0
  7 29  1  0
  7 30  1  0
  8 12  1  0
  8 31  1  0
  8 32  1  0
  9 18  1  0
  9 33  1  0
  9 34  1  0
 10 11  1  0
 10 13  1  0
 10 35  1  0
 10 36  1  0
 11 14  1  0
 11 37  1  0
 11 38  1  0
 12 15  2  0
 12 39  1  0
 13 17  1  0
 13 40  1  0
 13 41  1  0
 14 20  1  0
 14 42  1  0
 14 43  1  0
 15 16  1  0
 15 44  1  0
 16 19  1  0
 16 45  1  0
 16 46  1  0
 17 19  2  0
 17 47  1  0
 19 48  1  0
 20 49  1  0
 20 50  1  0
 20 51  1  0
M  END
> <Name>
5280450

> <OBJECTID>
9223373028995563534

> <PUBCHEM_COMPOUND_CID>
5280450

> <PUBCHEM_COMPOUND_CANONICALIZED>
1

> <PUBCHEM_CACTVS_COMPLEXITY>
267

> <PUBCHEM_CACTVS_HBOND_ACCEPTOR>
2

> <PUBCHEM_CACTVS_HBOND_DONOR>
1

> <PUBCHEM_CACTVS_ROTATABLE_BOND>
14

> <PUBCHEM_CACTVS_SUBSKEYS>
AAADcfB4MAAAAAAAAAAAAAAAAAAAAAAAAAAAAAAAAAAAAAAAAAAAGgAACAAACACAgAACCAAAAgCIACDSCAAAAAAgAAAICAEAAAgAABIAAQAAQAAEgAAIAAOIyKCAAAAAAAAAAAAAAAAAAAAAAAAAAAAAAA==

> <PUBCHEM_IUPAC_OPENEYE_NAME>
(9Z,12Z)-octadeca-9,12-dienoic acid

> <PUBCHEM_IUPAC_CAS_NAME>
(9Z,12Z)-octadeca-9,12-dienoic acid

> <PUBCHEM_IUPAC_NAME_MARKUP>
(9<I>Z</I>,12<I>Z</I>)-octadeca-9,12-dienoic acid

> <PUBCHEM_IUPAC_NAME>
(9Z,12Z)-octadeca-9,12-dienoic acid

> <PUBCHEM_IUPAC_SYSTEMATIC_NAME>
(9Z,12Z)-octadeca-9,12-dienoic acid

> <PUBCHEM_IUPAC_TRADITIONAL_NAME>
(9Z,12Z)-octadeca-9,12-dienoic acid

> <PUBCHEM_IUPAC_INCHI>
InChI=1S/C18H32O2/c1-2-3-4-5-6-7-8-9-10-11-12-13-14-15-16-17-18(19)20/h6-7,9-10H,2-5,8,11-17H2,1H3,(H,19,20)/b7-6-,10-9-

> <PUBCHEM_IUPAC_INCHIKEY>
OYHQOLUKZRVURQ-HZJYTTRNSA-N

> <PUBCHEM_XLOGP3>
6.8

> <PUBCHEM_EXACT_MASS>
280.240230259

> <PUBCHEM_MOLECULAR_FORMULA>
C18H32O2

> <PUBCHEM_MOLECULAR_WEIGHT>
280.4

> <PUBCHEM_OPENEYE_CAN_SMILES>
CCCCCC=CCC=CCCCCCCCC(=O)O

> <PUBCHEM_OPENEYE_ISO_SMILES>
CCCCC/C=C\C/C=C\CCCCCCCC(=O)O

> <PUBCHEM_CACTVS_TPSA>
37.3

> <PUBCHEM_MONOISOTOPIC_WEIGHT>
280.240230259

> <PUBCHEM_TOTAL_CHARGE>
0

> <PUBCHEM_HEAVY_ATOM_COUNT>
20

> <PUBCHEM_ATOM_DEF_STEREO_COUNT>
0

> <PUBCHEM_ATOM_UDEF_STEREO_COUNT>
0

> <PUBCHEM_BOND_DEF_STEREO_COUNT>
2

> <PUBCHEM_BOND_UDEF_STEREO_COUNT>
0

> <PUBCHEM_ISOTOPIC_ATOM_COUNT>
0

> <PUBCHEM_COMPONENT_COUNT>
1

> <PUBCHEM_CACTVS_TAUTO_COUNT>
1

> <PUBCHEM_COORDINATE_TYPE>
1
5
255

$$$$
5280637
  SciTegic09112316442D

 52 55  0  0  1  0            999 V2000
    5.1350   -1.6796    0.0000 O   0  0
    6.8671   -1.6796    0.0000 O   0  0
    5.1350   -4.6796    0.0000 O   0  0
    3.4030   -3.6796    0.0000 O   0  0
    6.8671   -3.6796    0.0000 O   0  0
    2.5369   -2.1796    0.0000 O   0  0
    8.6230    1.3829    0.0000 O   0  0
    5.1208    1.3996    0.0000 O   0  0
    6.0308    2.8930    0.0000 O   0  0
   12.0910    2.3696    0.0000 O   0  0
   12.0987    4.3696    0.0000 O   0  0
    5.1350   -3.6796    0.0000 C   0  0  1  0  0  0
    4.2690   -3.1796    0.0000 C   0  0  1  0  0  0
    6.0010   -3.1796    0.0000 C   0  0  2  0  0  0
    4.2690   -2.1796    0.0000 C   0  0  1  0  0  0
    6.0010   -2.1796    0.0000 C   0  0  1  0  0  0
    3.4030   -1.6796    0.0000 C   0  0
    6.8671   -0.6796    0.0000 C   0  0
    7.7671   -0.1553    0.0000 C   0  0
    5.9670   -0.1553    0.0000 C   0  0
    7.7551    0.8863    0.0000 C   0  0
    6.8910    1.3896    0.0000 C   0  0
    5.9790    0.8863    0.0000 C   0  0
    6.8948    2.3896    0.0000 C   0  0
    8.6269    2.3829    0.0000 C   0  0
    7.7628    2.8863    0.0000 C   0  0
    9.4948    2.8796    0.0000 C   0  0
   10.3589    2.3763    0.0000 C   0  0
    9.4987    3.8796    0.0000 C   0  0
   11.2269    2.8729    0.0000 C   0  0
   10.3666    4.3762    0.0000 C   0  0
   11.2307    3.8729    0.0000 C   0  0
    4.5981   -3.9896    0.0000 H   0  0
    4.2690   -3.7996    0.0000 H   0  0
    6.0010   -3.7996    0.0000 H   0  0
    4.2690   -1.5596    0.0000 H   0  0
    6.5380   -2.4896    0.0000 H   0  0
    3.8015   -1.2046    0.0000 H   0  0
    3.0044   -1.2046    0.0000 H   0  0
    4.5981   -4.9896    0.0000 H   0  0
    3.4030   -4.2996    0.0000 H   0  0
    6.8671   -4.2996    0.0000 H   0  0
    2.0000   -1.8696    0.0000 H   0  0
    8.3064   -0.4611    0.0000 H   0  0
    5.4277   -0.4611    0.0000 H   0  0
    7.7652    3.5063    0.0000 H   0  0
    4.5792    1.0979    0.0000 H   0  0
   10.3565    1.7563    0.0000 H   0  0
    8.9630    4.1916    0.0000 H   0  0
   10.3690    4.9962    0.0000 H   0  0
   12.6291    2.6775    0.0000 H   0  0
   12.1011    4.9896    0.0000 H   0  0
  1 15  1  0
  1 16  1  0
 16  2  1  1
  2 18  1  0
 12  3  1  1
  3 40  1  0
 13  4  1  6
  4 41  1  0
 14  5  1  6
  5 42  1  0
  6 17  1  0
  6 43  1  0
  7 21  1  0
  7 25  1  0
  8 23  1  0
  8 47  1  0
  9 24  2  0
 10 30  1  0
 10 51  1  0
 11 32  1  0
 11 52  1  0
 12 13  1  0
 12 14  1  0
 12 33  1  0
 13 15  1  0
 13 34  1  0
 14 16  1  0
 14 35  1  0
 15 17  1  1
 15 36  1  0
 16 37  1  0
 17 38  1  0
 17 39  1  0
 18 19  1  0
 18 20  2  0
 19 21  2  0
 19 44  1  0
 20 23  1  0
 20 45  1  0
 21 22  1  0
 22 23  2  0
 22 24  1  0
 24 26  1  0
 25 26  2  0
 25 27  1  0
 26 46  1  0
 27 28  2  0
 27 29  1  0
 28 30  1  0
 28 48  1  0
 29 31  2  0
 29 49  1  0
 30 32  2  0
 31 32  1  0
 31 50  1  0
M  END
> <Name>
5280637

> <OBJECTID>
9223373033290530830

> <PUBCHEM_COMPOUND_CID>
5280637

> <PUBCHEM_COMPOUND_CANONICALIZED>
1

> <PUBCHEM_CACTVS_COMPLEXITY>
714

> <PUBCHEM_CACTVS_HBOND_ACCEPTOR>
11

> <PUBCHEM_CACTVS_HBOND_DONOR>
7

> <PUBCHEM_CACTVS_ROTATABLE_BOND>
4

> <PUBCHEM_CACTVS_SUBSKEYS>
AAADceB4PAAAAAAAAAAAAAAAAAAAAAAAAAA0YIEAAAAAAACBQAAAGgAACAAADBSwmAMwDoAABgCIAqBSAAACCAAkIAAIiAEGiMgdNzaGNRqieWGl4BUPuQfI7LzOIAABCAAIQABAAAIQABCAAAAAAAAAAA==

> <PUBCHEM_IUPAC_OPENEYE_NAME>
2-(3,4-dihydroxyphenyl)-5-hydroxy-7-[(2S,3R,4S,5S,6R)-3,4,5-trihydroxy-6-(hydroxymethyl)tetrahydropyran-2-yl]oxy-chromen-4-one

> <PUBCHEM_IUPAC_CAS_NAME>
2-(3,4-dihydroxyphenyl)-5-hydroxy-7-[[(2S,3R,4S,5S,6R)-3,4,5-trihydroxy-6-(hydroxymethyl)-2-oxanyl]oxy]-1-benzopyran-4-one

> <PUBCHEM_IUPAC_NAME_MARKUP>
2-(3,4-dihydroxyphenyl)-5-hydroxy-7-[(2<I>S</I>,3<I>R</I>,4<I>S</I>,5<I>S</I>,6<I>R</I>)-3,4,5-trihydroxy-6-(hydroxymethyl)oxan-2-yl]oxychromen-4-one

> <PUBCHEM_IUPAC_NAME>
2-(3,4-dihydroxyphenyl)-5-hydroxy-7-[(2S,3R,4S,5S,6R)-3,4,5-trihydroxy-6-(hydroxymethyl)oxan-2-yl]oxychromen-4-one

> <PUBCHEM_IUPAC_SYSTEMATIC_NAME>
2-[3,4-bis(oxidanyl)phenyl]-7-[(2S,3R,4S,5S,6R)-6-(hydroxymethyl)-3,4,5-tris(oxidanyl)oxan-2-yl]oxy-5-oxidanyl-chromen-4-one

> <PUBCHEM_IUPAC_TRADITIONAL_NAME>
2-(3,4-dihydroxyphenyl)-5-hydroxy-7-[(2S,3R,4S,5S,6R)-3,4,5-trihydroxy-6-methylol-tetrahydropyran-2-yl]oxy-chromone

> <PUBCHEM_IUPAC_INCHI>
InChI=1S/C21H20O11/c22-7-16-18(27)19(28)20(29)21(32-16)30-9-4-12(25)17-13(26)6-14(31-15(17)5-9)8-1-2-10(23)11(24)3-8/h1-6,16,18-25,27-29H,7H2/t16-,18-,19+,20-,21-/m1/s1

> <PUBCHEM_IUPAC_INCHIKEY>
PEFNSGRTCBGNAN-QNDFHXLGSA-N

> <PUBCHEM_XLOGP3_AA>
0.5

> <PUBCHEM_EXACT_MASS>
448.10056145

> <PUBCHEM_MOLECULAR_FORMULA>
C21H20O11

> <PUBCHEM_MOLECULAR_WEIGHT>
448.4

> <PUBCHEM_OPENEYE_CAN_SMILES>
C1=CC(=C(C=C1C2=CC(=O)C3=C(C=C(C=C3O2)OC4C(C(C(C(O4)CO)O)O)O)O)O)O

> <PUBCHEM_OPENEYE_ISO_SMILES>
C1=CC(=C(C=C1C2=CC(=O)C3=C(C=C(C=C3O2)O[C@H]4[C@@H]([C@H]([C@@H]([C@H](O4)CO)O)O)O)O)O)O

> <PUBCHEM_CACTVS_TPSA>
186

> <PUBCHEM_MONOISOTOPIC_WEIGHT>
448.10056145

> <PUBCHEM_TOTAL_CHARGE>
0

> <PUBCHEM_HEAVY_ATOM_COUNT>
32

> <PUBCHEM_ATOM_DEF_STEREO_COUNT>
5

> <PUBCHEM_ATOM_UDEF_STEREO_COUNT>
0

> <PUBCHEM_BOND_DEF_STEREO_COUNT>
0

> <PUBCHEM_BOND_UDEF_STEREO_COUNT>
0

> <PUBCHEM_ISOTOPIC_ATOM_COUNT>
0

> <PUBCHEM_COMPONENT_COUNT>
1

> <PUBCHEM_CACTVS_TAUTO_COUNT>
68

> <PUBCHEM_COORDINATE_TYPE>
1
5
255

> <PUBCHEM_BONDANNOTATIONS>
15  17  5
18  19  8
18  20  8
19  21  8
16  2  5
20  23  8
21  22  8
22  23  8
22  24  8
24  26  8
25  26  8
27  28  8
27  29  8
28  30  8
29  31  8
12  3  5
30  32  8
31  32  8
13  4  6
14  5  6
7  21  8
7  25  8

$$$$
5280804
  SciTegic09112316442D

 53 56  0  0  1  0            999 V2000
    5.1350   -1.2857    0.0000 O   0  0
    6.8671   -1.2857    0.0000 O   0  0
    5.1350   -4.2857    0.0000 O   0  0
    3.4030   -3.2857    0.0000 O   0  0
    6.8671   -3.2857    0.0000 O   0  0
    2.5369   -1.7857    0.0000 O   0  0
    7.7331    1.2143    0.0000 O   0  0
    5.1350   -0.2857    0.0000 O   0  0
    4.2308    1.2112    0.0000 O   0  0
    5.9889    4.2836    0.0000 O   0  0
   11.1972    0.2143    0.0000 O   0  0
   11.1972   -1.7857    0.0000 O   0  0
    5.1350   -3.2857    0.0000 C   0  0  1  0  0  0
    4.2690   -2.7857    0.0000 C   0  0  1  0  0  0
    6.0010   -2.7857    0.0000 C   0  0  2  0  0  0
    4.2690   -1.7857    0.0000 C   0  0  1  0  0  0
    6.0010   -1.7857    0.0000 C   0  0  1  0  0  0
    3.4030   -1.2857    0.0000 C   0  0
    6.8671   -0.2857    0.0000 C   0  0
    7.7331    0.2143    0.0000 C   0  0
    6.0010    0.2143    0.0000 C   0  0
    6.0010    1.2143    0.0000 C   0  0
    6.8671    1.7143    0.0000 C   0  0
    8.5991   -0.2857    0.0000 C   0  0
    5.0910    1.7212    0.0000 C   0  0
    6.8831    2.7558    0.0000 C   0  0
    9.4651    0.2143    0.0000 C   0  0
    8.5991   -1.2857    0.0000 C   0  0
    5.0830    2.7628    0.0000 C   0  0
    5.9851    3.2836    0.0000 C   0  0
   10.3312   -0.2857    0.0000 C   0  0
    9.4651   -1.7857    0.0000 C   0  0
   10.3312   -1.2857    0.0000 C   0  0
    4.5981   -3.5957    0.0000 H   0  0
    4.2690   -3.4057    0.0000 H   0  0
    6.0010   -3.4057    0.0000 H   0  0
    4.2690   -1.1657    0.0000 H   0  0
    6.0010   -1.1657    0.0000 H   0  0
    3.8015   -0.8107    0.0000 H   0  0
    3.0044   -0.8107    0.0000 H   0  0
    4.5981   -4.5957    0.0000 H   0  0
    3.4030   -3.9057    0.0000 H   0  0
    6.8671   -3.9057    0.0000 H   0  0
    2.0000   -1.4757    0.0000 H   0  0
    7.4236    3.0596    0.0000 H   0  0
    9.4651    0.8343    0.0000 H   0  0
    8.0622   -1.5957    0.0000 H   0  0
    4.5449    3.0707    0.0000 H   0  0
    9.4651   -2.4057    0.0000 H   0  0
    3.6904    1.5150    0.0000 H   0  0
    5.4532    4.5957    0.0000 H   0  0
   11.1972    0.8343    0.0000 H   0  0
   11.1972   -2.4057    0.0000 H   0  0
  1 16  1  0
  1 17  1  0
 17  2  1  1
  2 19  1  0
 13  3  1  1
  3 41  1  0
 14  4  1  6
  4 42  1  0
 15  5  1  6
  5 43  1  0
  6 18  1  0
  6 44  1  0
  7 20  1  0
  7 23  1  0
  8 21  2  0
  9 25  1  0
  9 50  1  0
 10 30  1  0
 10 51  1  0
 11 31  1  0
 11 52  1  0
 12 33  1  0
 12 53  1  0
 13 14  1  0
 13 15  1  0
 13 34  1  0
 14 16  1  0
 14 35  1  0
 15 17  1  0
 15 36  1  0
 16 18  1  1
 16 37  1  0
 17 38  1  0
 18 39  1  0
 18 40  1  0
 19 20  2  0
 19 21  1  0
 20 24  1  0
 21 22  1  0
 22 23  1  0
 22 25  2  0
 23 26  2  0
 24 27  2  0
 24 28  1  0
 25 29  1  0
 26 30  1  0
 26 45  1  0
 27 31  1  0
 27 46  1  0
 28 32  2  0
 28 47  1  0
 29 30  2  0
 29 48  1  0
 31 33  2  0
 32 33  1  0
 32 49  1  0
M  END
> <Name>
5280804

> <OBJECTID>
9223373037585498126

> <PUBCHEM_COMPOUND_CID>
5280804

> <PUBCHEM_COMPOUND_CANONICALIZED>
1

> <PUBCHEM_CACTVS_COMPLEXITY>
758

> <PUBCHEM_CACTVS_HBOND_ACCEPTOR>
12

> <PUBCHEM_CACTVS_HBOND_DONOR>
8

> <PUBCHEM_CACTVS_ROTATABLE_BOND>
4

> <PUBCHEM_CACTVS_SUBSKEYS>
AAADceB4PAAAAAAAAAAAAAAAAAAAAAAAAAA0YIEAAAAAAACBQAAAGgAACAAADBSwmAMwDoAABgCIAqBSAAICCAAkIAAIiAFGiMgdNzaGNR6ieWGl4BUPuQfI7LzOIAABCAAIQABAAAIQABCAAAAAAAAAAA==

> <PUBCHEM_IUPAC_OPENEYE_NAME>
2-(3,4-dihydroxyphenyl)-5,7-dihydroxy-3-[(2S,3R,4S,5S,6R)-3,4,5-trihydroxy-6-(hydroxymethyl)tetrahydropyran-2-yl]oxy-chromen-4-one

> <PUBCHEM_IUPAC_CAS_NAME>
2-(3,4-dihydroxyphenyl)-5,7-dihydroxy-3-[[(2S,3R,4S,5S,6R)-3,4,5-trihydroxy-6-(hydroxymethyl)-2-oxanyl]oxy]-1-benzopyran-4-one

> <PUBCHEM_IUPAC_NAME_MARKUP>
2-(3,4-dihydroxyphenyl)-5,7-dihydroxy-3-[(2<I>S</I>,3<I>R</I>,4<I>S</I>,5<I>S</I>,6<I>R</I>)-3,4,5-trihydroxy-6-(hydroxymethyl)oxan-2-yl]oxychromen-4-one

> <PUBCHEM_IUPAC_NAME>
2-(3,4-dihydroxyphenyl)-5,7-dihydroxy-3-[(2S,3R,4S,5S,6R)-3,4,5-trihydroxy-6-(hydroxymethyl)oxan-2-yl]oxychromen-4-one

> <PUBCHEM_IUPAC_SYSTEMATIC_NAME>
2-[3,4-bis(oxidanyl)phenyl]-3-[(2S,3R,4S,5S,6R)-6-(hydroxymethyl)-3,4,5-tris(oxidanyl)oxan-2-yl]oxy-5,7-bis(oxidanyl)chromen-4-one

> <PUBCHEM_IUPAC_TRADITIONAL_NAME>
2-(3,4-dihydroxyphenyl)-5,7-dihydroxy-3-[(2S,3R,4S,5S,6R)-3,4,5-trihydroxy-6-methylol-tetrahydropyran-2-yl]oxy-chromone

> <PUBCHEM_IUPAC_INCHI>
InChI=1S/C21H20O12/c22-6-13-15(27)17(29)18(30)21(32-13)33-20-16(28)14-11(26)4-8(23)5-12(14)31-19(20)7-1-2-9(24)10(25)3-7/h1-5,13,15,17-18,21-27,29-30H,6H2/t13-,15-,17+,18-,21+/m1/s1

> <PUBCHEM_IUPAC_INCHIKEY>
OVSQVDMCBVZWGM-QSOFNFLRSA-N

> <PUBCHEM_XLOGP3_AA>
0.4

> <PUBCHEM_EXACT_MASS>
464.09547607

> <PUBCHEM_MOLECULAR_FORMULA>
C21H20O12

> <PUBCHEM_MOLECULAR_WEIGHT>
464.4

> <PUBCHEM_OPENEYE_CAN_SMILES>
C1=CC(=C(C=C1C2=C(C(=O)C3=C(C=C(C=C3O2)O)O)OC4C(C(C(C(O4)CO)O)O)O)O)O

> <PUBCHEM_OPENEYE_ISO_SMILES>
C1=CC(=C(C=C1C2=C(C(=O)C3=C(C=C(C=C3O2)O)O)O[C@H]4[C@@H]([C@H]([C@@H]([C@H](O4)CO)O)O)O)O)O

> <PUBCHEM_CACTVS_TPSA>
207

> <PUBCHEM_MONOISOTOPIC_WEIGHT>
464.09547607

> <PUBCHEM_TOTAL_CHARGE>
0

> <PUBCHEM_HEAVY_ATOM_COUNT>
33

> <PUBCHEM_ATOM_DEF_STEREO_COUNT>
5

> <PUBCHEM_ATOM_UDEF_STEREO_COUNT>
0

> <PUBCHEM_BOND_DEF_STEREO_COUNT>
0

> <PUBCHEM_BOND_UDEF_STEREO_COUNT>
0

> <PUBCHEM_ISOTOPIC_ATOM_COUNT>
0

> <PUBCHEM_COMPONENT_COUNT>
1

> <PUBCHEM_CACTVS_TAUTO_COUNT>
162

> <PUBCHEM_COORDINATE_TYPE>
1
5
255

> <PUBCHEM_BONDANNOTATIONS>
16  18  5
19  20  8
19  21  8
17  2  5
21  22  8
22  23  8
22  25  8
23  26  8
24  27  8
24  28  8
25  29  8
26  30  8
27  31  8
28  32  8
29  30  8
13  3  5
31  33  8
32  33  8
14  4  6
15  5  6
7  20  8
7  23  8

$$$$
5280805
  SciTegic09112316442D

 73 77  0  0  1  0            999 V2000
    6.9343   -0.2500    0.0000 O   0  0
    6.0682   -2.7500    0.0000 O   0  0
    4.3362   -2.7500    0.0000 O   0  0
    7.8003   -2.7500    0.0000 O   0  0
    9.5323   -1.7500    0.0000 O   0  0
    7.8003    1.2500    0.0000 O   0  0
    9.5323    0.2500    0.0000 O   0  0
    6.0682   -4.7500    0.0000 O   0  0
    4.3362   -5.7500    0.0000 O   0  0
    2.6042   -4.7500    0.0000 O   0  0
    6.0682    3.2500    0.0000 O   0  0
    6.0682    0.2500    0.0000 O   0  0
    4.3198    0.2154    0.0000 O   0  0
    2.5381    3.2742    0.0000 O   0  0
    8.6663    5.7500    0.0000 O   0  0
   10.3984    4.7500    0.0000 O   0  0
    6.9343   -1.2500    0.0000 C   0  0  1  0  0  0
    7.8003   -1.7500    0.0000 C   0  0  2  0  0  0
    8.6663   -1.2500    0.0000 C   0  0  1  0  0  0
    8.6663   -0.2500    0.0000 C   0  0  2  0  0  0
    5.2022   -4.2500    0.0000 C   0  0  1  0  0  0
    5.2022   -3.2500    0.0000 C   0  0  2  0  0  0
    4.3362   -4.7500    0.0000 C   0  0  1  0  0  0
    3.4702   -4.2500    0.0000 C   0  0  2  0  0  0
    7.8003    0.2500    0.0000 C   0  0  1  0  0  0
    6.0682   -1.7500    0.0000 C   0  0
    3.4702   -3.2500    0.0000 C   0  0  2  0  0  0
    2.6042   -2.7500    0.0000 C   0  0
    6.9343    1.7500    0.0000 C   0  0
    6.9343    2.7500    0.0000 C   0  0
    6.0682    1.2500    0.0000 C   0  0
    5.2022    1.7500    0.0000 C   0  0
    7.8003    3.2500    0.0000 C   0  0
    5.2022    2.7500    0.0000 C   0  0
    4.3083    1.2153    0.0000 C   0  0
    4.3083    3.2847    0.0000 C   0  0
    7.8003    4.2500    0.0000 C   0  0
    8.6663    2.7500    0.0000 C   0  0
    3.4022    1.7292    0.0000 C   0  0
    3.4022    2.7708    0.0000 C   0  0
    8.6663    4.7500    0.0000 C   0  0
    9.5323    3.2500    0.0000 C   0  0
    9.5323    4.2500    0.0000 C   0  0
    6.3973   -0.9400    0.0000 H   0  0
    8.3372   -2.0600    0.0000 H   0  0
    9.2033   -0.9400    0.0000 H   0  0
    9.2033   -0.5600    0.0000 H   0  0
    5.2022   -4.8700    0.0000 H   0  0
    5.2022   -2.6300    0.0000 H   0  0
    3.7993   -5.0600    0.0000 H   0  0
    2.9332   -3.9400    0.0000 H   0  0
    8.3372    0.5600    0.0000 H   0  0
    5.8562   -1.1674    0.0000 H   0  0
    5.4577   -1.8577    0.0000 H   0  0
    3.4702   -2.6300    0.0000 H   0  0
    2.9141   -2.2131    0.0000 H   0  0
    2.0672   -2.4400    0.0000 H   0  0
    2.2942   -3.2869    0.0000 H   0  0
    8.3372   -3.0600    0.0000 H   0  0
   10.0693   -1.4400    0.0000 H   0  0
    9.5323    0.8700    0.0000 H   0  0
    6.6052   -4.4400    0.0000 H   0  0
    3.7993   -6.0600    0.0000 H   0  0
    2.0672   -4.4400    0.0000 H   0  0
    4.3154    3.9046    0.0000 H   0  0
    7.2634    4.5600    0.0000 H   0  0
    8.6663    2.1300    0.0000 H   0  0
    2.8665    1.4171    0.0000 H   0  0
   10.0693    2.9400    0.0000 H   0  0
    3.7865   -0.1008    0.0000 H   0  0
    2.0000    2.9662    0.0000 H   0  0
    8.1294    6.0600    0.0000 H   0  0
   10.9353    4.4400    0.0000 H   0  0
  1 17  1  0
  1 25  1  0
 22  2  1  1
  2 26  1  0
  3 22  1  0
  3 27  1  0
 18  4  1  6
  4 59  1  0
 19  5  1  1
  5 60  1  0
 25  6  1  1
  6 29  1  0
 20  7  1  6
  7 61  1  0
 21  8  1  6
  8 62  1  0
 23  9  1  6
  9 63  1  0
 24 10  1  1
 10 64  1  0
 11 30  1  0
 11 34  1  0
 12 31  2  0
 13 35  1  0
 13 70  1  0
 14 40  1  0
 14 71  1  0
 15 41  1  0
 15 72  1  0
 16 43  1  0
 16 73  1  0
 17 18  1  0
 17 26  1  1
 17 44  1  0
 18 19  1  0
 18 45  1  0
 19 20  1  0
 19 46  1  0
 20 25  1  0
 20 47  1  0
 21 22  1  0
 21 23  1  0
 21 48  1  0
 22 49  1  0
 23 24  1  0
 23 50  1  0
 24 27  1  0
 24 51  1  0
 25 52  1  0
 26 53  1  0
 26 54  1  0
 27 28  1  6
 27 55  1  0
 28 56  1  0
 28 57  1  0
 28 58  1  0
 29 30  2  0
 29 31  1  0
 30 33  1  0
 31 32  1  0
 32 34  1  0
 32 35  2  0
 33 37  2  0
 33 38  1  0
 34 36  2  0
 35 39  1  0
 36 40  1  0
 36 65  1  0
 37 41  1  0
 37 66  1  0
 38 42  2  0
 38 67  1  0
 39 40  2  0
 39 68  1  0
 41 43  2  0
 42 43  1  0
 42 69  1  0
M  END
> <Name>
5280805

> <OBJECTID>
9223373041880465422

> <PUBCHEM_COMPOUND_CID>
5280805

> <PUBCHEM_COMPOUND_CANONICALIZED>
1

> <PUBCHEM_CACTVS_COMPLEXITY>
1020

> <PUBCHEM_CACTVS_HBOND_ACCEPTOR>
16

> <PUBCHEM_CACTVS_HBOND_DONOR>
10

> <PUBCHEM_CACTVS_ROTATABLE_BOND>
6

> <PUBCHEM_CACTVS_SUBSKEYS>
AAADceB4PgAAAAAAAAAAAAAAAAAAAAAAAAA0aIECAAAAAACBQAAAGgAACAAADBSwmAMyDoAABgCIAqBSAAICCAAkIAAIiAFGiMgdNzaGNR6ieWGl4BUPuQfI7LzOIAABCAAIQABAAAIQABCAAAAAAAAAAA==

> <PUBCHEM_IUPAC_OPENEYE_NAME>
2-(3,4-dihydroxyphenyl)-5,7-dihydroxy-3-[(2S,3R,4S,5S,6R)-3,4,5-trihydroxy-6-[[(2R,3R,4R,5R,6S)-3,4,5-trihydroxy-6-methyl-tetrahydropyran-2-yl]oxymethyl]tetrahydropyran-2-yl]oxy-chromen-4-one

> <PUBCHEM_IUPAC_CAS_NAME>
2-(3,4-dihydroxyphenyl)-5,7-dihydroxy-3-[[(2S,3R,4S,5S,6R)-3,4,5-trihydroxy-6-[[(2R,3R,4R,5R,6S)-3,4,5-trihydroxy-6-methyl-2-oxanyl]oxymethyl]-2-oxanyl]oxy]-1-benzopyran-4-one

> <PUBCHEM_IUPAC_NAME_MARKUP>
2-(3,4-dihydroxyphenyl)-5,7-dihydroxy-3-[(2<I>S</I>,3<I>R</I>,4<I>S</I>,5<I>S</I>,6<I>R</I>)-3,4,5-trihydroxy-6-[[(2<I>R</I>,3<I>R</I>,4<I>R</I>,5<I>R</I>,6<I>S</I>)-3,4,5-trihydroxy-6-methyloxan-2-yl]oxymethyl]oxan-2-yl]oxychromen-4-one

> <PUBCHEM_IUPAC_NAME>
2-(3,4-dihydroxyphenyl)-5,7-dihydroxy-3-[(2S,3R,4S,5S,6R)-3,4,5-trihydroxy-6-[[(2R,3R,4R,5R,6S)-3,4,5-trihydroxy-6-methyloxan-2-yl]oxymethyl]oxan-2-yl]oxychromen-4-one

> <PUBCHEM_IUPAC_SYSTEMATIC_NAME>
2-[3,4-bis(oxidanyl)phenyl]-3-[(2S,3R,4S,5S,6R)-6-[[(2R,3R,4R,5R,6S)-6-methyl-3,4,5-tris(oxidanyl)oxan-2-yl]oxymethyl]-3,4,5-tris(oxidanyl)oxan-2-yl]oxy-5,7-bis(oxidanyl)chromen-4-one

> <PUBCHEM_IUPAC_TRADITIONAL_NAME>
2-(3,4-dihydroxyphenyl)-5,7-dihydroxy-3-[(2S,3R,4S,5S,6R)-3,4,5-trihydroxy-6-[[(2R,3R,4R,5R,6S)-3,4,5-trihydroxy-6-methyl-tetrahydropyran-2-yl]oxymethyl]tetrahydropyran-2-yl]oxy-chromone

> <PUBCHEM_IUPAC_INCHI>
InChI=1S/C27H30O16/c1-8-17(32)20(35)22(37)26(40-8)39-7-15-18(33)21(36)23(38)27(42-15)43-25-19(34)16-13(31)5-10(28)6-14(16)41-24(25)9-2-3-11(29)12(30)4-9/h2-6,8,15,17-18,20-23,26-33,35-38H,7H2,1H3/t8-,15+,17-,18+,20+,21-,22+,23+,26+,27-/m0/s1

> <PUBCHEM_IUPAC_INCHIKEY>
IKGXIBQEEMLURG-NVPNHPEKSA-N

> <PUBCHEM_XLOGP3_AA>
-1.3

> <PUBCHEM_EXACT_MASS>
610.15338487

> <PUBCHEM_MOLECULAR_FORMULA>
C27H30O16

> <PUBCHEM_MOLECULAR_WEIGHT>
610.5

> <PUBCHEM_OPENEYE_CAN_SMILES>
CC1C(C(C(C(O1)OCC2C(C(C(C(O2)OC3=C(OC4=CC(=CC(=C4C3=O)O)O)C5=CC(=C(C=C5)O)O)O)O)O)O)O)O

> <PUBCHEM_OPENEYE_ISO_SMILES>
C[C@H]1[C@@H]([C@H]([C@H]([C@@H](O1)OC[C@@H]2[C@H]([C@@H]([C@H]([C@@H](O2)OC3=C(OC4=CC(=CC(=C4C3=O)O)O)C5=CC(=C(C=C5)O)O)O)O)O)O)O)O

> <PUBCHEM_CACTVS_TPSA>
266

> <PUBCHEM_MONOISOTOPIC_WEIGHT>
610.15338487

> <PUBCHEM_TOTAL_CHARGE>
0

> <PUBCHEM_HEAVY_ATOM_COUNT>
43

> <PUBCHEM_ATOM_DEF_STEREO_COUNT>
10

> <PUBCHEM_ATOM_UDEF_STEREO_COUNT>
0

> <PUBCHEM_BOND_DEF_STEREO_COUNT>
0

> <PUBCHEM_BOND_UDEF_STEREO_COUNT>
0

> <PUBCHEM_ISOTOPIC_ATOM_COUNT>
0

> <PUBCHEM_COMPONENT_COUNT>
1

> <PUBCHEM_CACTVS_TAUTO_COUNT>
162

> <PUBCHEM_COORDINATE_TYPE>
1
5
255

> <PUBCHEM_BONDANNOTATIONS>
24  10  5
11  30  8
11  34  8
17  26  5
22  2  5
27  28  6
29  30  8
29  31  8
31  32  8
32  34  8
32  35  8
33  37  8
33  38  8
34  36  8
35  39  8
36  40  8
37  41  8
38  42  8
39  40  8
18  4  6
41  43  8
42  43  8
19  5  5
25  6  5
20  7  6
21  8  6
23  9  6

$$$$
5280863
  SciTegic09112316442D

 31 33  0  0  0  0            999 V2000
    6.0682   -0.6154    0.0000 O   0  0
    7.8003    1.3846    0.0000 O   0  0
    4.3198    2.4192    0.0000 O   0  0
    6.0682    2.3846    0.0000 O   0  0
    2.5381   -0.6395    0.0000 O   0  0
   10.3984   -2.1154    0.0000 O   0  0
    5.2022    0.8846    0.0000 C   0  0
    5.2022   -0.1154    0.0000 C   0  0
    6.9343   -0.1154    0.0000 C   0  0
    6.0682    1.3846    0.0000 C   0  0
    6.9343    0.8846    0.0000 C   0  0
    7.8003   -0.6154    0.0000 C   0  0
    4.3083    1.4193    0.0000 C   0  0
    4.3083   -0.6501    0.0000 C   0  0
    3.4022   -0.1362    0.0000 C   0  0
    3.4022    0.9054    0.0000 C   0  0
    8.6663   -0.1154    0.0000 C   0  0
    7.8003   -1.6154    0.0000 C   0  0
    9.5323   -0.6154    0.0000 C   0  0
    8.6663   -2.1154    0.0000 C   0  0
    9.5323   -1.6154    0.0000 C   0  0
    4.3154   -1.2700    0.0000 H   0  0
    2.8665    1.2175    0.0000 H   0  0
    8.6663    0.5046    0.0000 H   0  0
    7.2634   -1.9254    0.0000 H   0  0
   10.0693   -0.3054    0.0000 H   0  0
    8.6663   -2.7354    0.0000 H   0  0
    7.8003    2.0046    0.0000 H   0  0
    3.7865    2.7354    0.0000 H   0  0
    2.0000   -0.3316    0.0000 H   0  0
   10.3984   -2.7354    0.0000 H   0  0
  1  8  1  0
  1  9  1  0
  2 11  1  0
  2 28  1  0
  3 13  1  0
  3 29  1  0
  4 10  2  0
  5 15  1  0
  5 30  1  0
  6 21  1  0
  6 31  1  0
  7  8  1  0
  7 10  1  0
  7 13  2  0
  8 14  2  0
  9 11  2  0
  9 12  1  0
 10 11  1  0
 12 17  2  0
 12 18  1  0
 13 16  1  0
 14 15  1  0
 14 22  1  0
 15 16  2  0
 16 23  1  0
 17 19  1  0
 17 24  1  0
 18 20  2  0
 18 25  1  0
 19 21  2  0
 19 26  1  0
 20 21  1  0
 20 27  1  0
M  END
> <Name>
5280863

> <OBJECTID>
9223373046175432718

> <PUBCHEM_COMPOUND_CID>
5280863

> <PUBCHEM_COMPOUND_CANONICALIZED>
1

> <PUBCHEM_CACTVS_COMPLEXITY>
451

> <PUBCHEM_CACTVS_HBOND_ACCEPTOR>
6

> <PUBCHEM_CACTVS_HBOND_DONOR>
4

> <PUBCHEM_CACTVS_ROTATABLE_BOND>
1

> <PUBCHEM_CACTVS_SUBSKEYS>
AAADccBwOAAAAAAAAAAAAAAAAAAAAAAAAAAwYIAAAAAAAACBQAAAGgAACAAADASAmAAwBoAABgCIAqBSAAICCAAkIAAIiAFGCMgMJzaGNRqCeWCl4BUIuQfI7KzOIAAACAAIAABAAAAQABAAAAAAAAAAAA==

> <PUBCHEM_IUPAC_OPENEYE_NAME>
3,5,7-trihydroxy-2-(4-hydroxyphenyl)chromen-4-one

> <PUBCHEM_IUPAC_CAS_NAME>
3,5,7-trihydroxy-2-(4-hydroxyphenyl)-1-benzopyran-4-one

> <PUBCHEM_IUPAC_NAME_MARKUP>
3,5,7-trihydroxy-2-(4-hydroxyphenyl)chromen-4-one

> <PUBCHEM_IUPAC_NAME>
3,5,7-trihydroxy-2-(4-hydroxyphenyl)chromen-4-one

> <PUBCHEM_IUPAC_SYSTEMATIC_NAME>
2-(4-hydroxyphenyl)-3,5,7-tris(oxidanyl)chromen-4-one

> <PUBCHEM_IUPAC_TRADITIONAL_NAME>
3,5,7-trihydroxy-2-(4-hydroxyphenyl)chromone

> <PUBCHEM_IUPAC_INCHI>
InChI=1S/C15H10O6/c16-8-3-1-7(2-4-8)15-14(20)13(19)12-10(18)5-9(17)6-11(12)21-15/h1-6,16-18,20H

> <PUBCHEM_IUPAC_INCHIKEY>
IYRMWMYZSQPJKC-UHFFFAOYSA-N

> <PUBCHEM_XLOGP3>
1.9

> <PUBCHEM_EXACT_MASS>
286.04773803

> <PUBCHEM_MOLECULAR_FORMULA>
C15H10O6

> <PUBCHEM_MOLECULAR_WEIGHT>
286.24

> <PUBCHEM_OPENEYE_CAN_SMILES>
C1=CC(=CC=C1C2=C(C(=O)C3=C(C=C(C=C3O2)O)O)O)O

> <PUBCHEM_OPENEYE_ISO_SMILES>
C1=CC(=CC=C1C2=C(C(=O)C3=C(C=C(C=C3O2)O)O)O)O

> <PUBCHEM_CACTVS_TPSA>
107

> <PUBCHEM_MONOISOTOPIC_WEIGHT>
286.04773803

> <PUBCHEM_TOTAL_CHARGE>
0

> <PUBCHEM_HEAVY_ATOM_COUNT>
21

> <PUBCHEM_ATOM_DEF_STEREO_COUNT>
0

> <PUBCHEM_ATOM_UDEF_STEREO_COUNT>
0

> <PUBCHEM_BOND_DEF_STEREO_COUNT>
0

> <PUBCHEM_BOND_UDEF_STEREO_COUNT>
0

> <PUBCHEM_ISOTOPIC_ATOM_COUNT>
0

> <PUBCHEM_COMPONENT_COUNT>
1

> <PUBCHEM_CACTVS_TAUTO_COUNT>
-1

> <PUBCHEM_COORDINATE_TYPE>
1
5
255

> <PUBCHEM_BONDANNOTATIONS>
1  8  8
1  9  8
10  11  8
12  17  8
12  18  8
13  16  8
14  15  8
15  16  8
17  19  8
18  20  8
19  21  8
20  21  8
7  10  8
7  13  8
7  8  8
8  14  8
9  11  8

$$$$
5281613
  SciTegic09112316442D

 75 79  0  0  1  0            999 V2000
    6.8671   -1.8743    0.0000 O   0  0
    4.2690   -4.3743    0.0000 O   0  0
    6.0010   -4.3743    0.0000 O   0  0
    7.7331   -4.3743    0.0000 O   0  0
    9.4651   -3.3743    0.0000 O   0  0
    7.7331   -0.3743    0.0000 O   0  0
    9.4651   -1.3743    0.0000 O   0  0
    6.0010   -6.3743    0.0000 O   0  0
    4.2690   -7.3743    0.0000 O   0  0
    2.5369   -6.3743    0.0000 O   0  0
    5.9589    2.6777    0.0000 O   0  0
    4.1934   -0.3470    0.0000 O   0  0
    3.3550    1.1877    0.0000 O   0  0
    5.1102    7.1810    0.0000 O   0  0
    6.8384    6.1743    0.0000 O   0  0
    6.8671   -2.8743    0.0000 C   0  0  1  0  0  0
    7.7331   -3.3743    0.0000 C   0  0  2  0  0  0
    8.5991   -2.8743    0.0000 C   0  0  1  0  0  0
    8.5991   -1.8743    0.0000 C   0  0  2  0  0  0
    5.1350   -5.8743    0.0000 C   0  0  1  0  0  0
    5.1350   -4.8743    0.0000 C   0  0  1  0  0  0
    4.2690   -6.3743    0.0000 C   0  0  1  0  0  0
    3.4030   -5.8743    0.0000 C   0  0  2  0  0  0
    7.7331   -1.3743    0.0000 C   0  0  1  0  0  0
    3.4030   -4.8743    0.0000 C   0  0  2  0  0  0
    6.0010   -3.3743    0.0000 C   0  0
    2.5369   -4.3743    0.0000 C   0  0
    6.8671    0.1257    0.0000 C   0  0
    6.8630    1.1673    0.0000 C   0  0
    5.9630   -0.3916    0.0000 C   0  0
    5.9550    1.6777    0.0000 C   0  0
    5.0670    0.1396    0.0000 C   0  0
    5.0871    1.1810    0.0000 C   0  0
    4.2230    1.6844    0.0000 C   0  0
    5.0948    3.1810    0.0000 C   0  0
    4.2268    2.6843    0.0000 C   0  0
    5.0986    4.1810    0.0000 C   0  0
    5.9666    4.6776    0.0000 C   0  0
    4.2345    4.6843    0.0000 C   0  0
    5.9704    5.6776    0.0000 C   0  0
    4.2384    5.6843    0.0000 C   0  0
    5.1063    6.1810    0.0000 C   0  0
    4.2461    7.6843    0.0000 C   0  0
    6.3301   -2.5643    0.0000 H   0  0
    8.2700   -3.6843    0.0000 H   0  0
    9.1360   -2.5643    0.0000 H   0  0
    8.5991   -1.2543    0.0000 H   0  0
    5.1350   -6.4943    0.0000 H   0  0
    5.1350   -4.2543    0.0000 H   0  0
    3.7320   -6.6843    0.0000 H   0  0
    3.4030   -6.4943    0.0000 H   0  0
    7.1962   -1.0643    0.0000 H   0  0
    3.4030   -4.2543    0.0000 H   0  0
    5.7890   -2.7917    0.0000 H   0  0
    5.3905   -3.4820    0.0000 H   0  0
    2.8469   -3.8374    0.0000 H   0  0
    2.0000   -4.0643    0.0000 H   0  0
    2.2269   -4.9112    0.0000 H   0  0
    8.2700   -4.6843    0.0000 H   0  0
   10.0021   -3.0643    0.0000 H   0  0
    9.4651   -0.7543    0.0000 H   0  0
    6.5380   -6.0643    0.0000 H   0  0
    3.7320   -7.6843    0.0000 H   0  0
    2.0000   -6.0643    0.0000 H   0  0
    7.3976    1.4814    0.0000 H   0  0
    5.9582   -1.0116    0.0000 H   0  0
    3.6911    2.9964    0.0000 H   0  0
    4.1838   -0.9669    0.0000 H   0  0
    6.5023    4.3656    0.0000 H   0  0
    3.6964    4.3764    0.0000 H   0  0
    3.7026    5.9964    0.0000 H   0  0
    6.8408    6.7943    0.0000 H   0  0
    4.5582    8.2200    0.0000 H   0  0
    3.7104    7.9964    0.0000 H   0  0
    3.9340    7.1486    0.0000 H   0  0
  1 16  1  0
  1 24  1  0
  2 21  1  0
  2 25  1  0
 21  3  1  1
  3 26  1  0
 17  4  1  6
  4 59  1  0
 18  5  1  1
  5 60  1  0
 24  6  1  1
  6 28  1  0
 19  7  1  6
  7 61  1  0
 20  8  1  6
  8 62  1  0
 22  9  1  6
  9 63  1  0
 23 10  1  1
 10 64  1  0
 11 31  1  0
 11 35  1  0
 12 32  1  0
 12 68  1  0
 13 34  2  0
 14 42  1  0
 14 43  1  0
 15 40  1  0
 15 72  1  0
 16 17  1  0
 16 26  1  1
 16 44  1  0
 17 18  1  0
 17 45  1  0
 18 19  1  0
 18 46  1  0
 19 24  1  0
 19 47  1  0
 20 21  1  0
 20 22  1  0
 20 48  1  0
 21 49  1  0
 22 23  1  0
 22 50  1  0
 23 25  1  0
 23 51  1  0
 24 52  1  0
 25 27  1  6
 25 53  1  0
 26 54  1  0
 26 55  1  0
 27 56  1  0
 27 57  1  0
 27 58  1  0
 28 29  1  0
 28 30  2  0
 29 31  2  0
 29 65  1  0
 30 32  1  0
 30 66  1  0
 31 33  1  0
 32 33  2  0
 33 34  1  0
 34 36  1  0
 35 36  2  0
 35 37  1  0
 36 67  1  0
 37 38  2  0
 37 39  1  0
 38 40  1  0
 38 69  1  0
 39 41  2  0
 39 70  1  0
 40 42  2  0
 41 42  1  0
 41 71  1  0
 43 73  1  0
 43 74  1  0
 43 75  1  0
M  END
> <Name>
5281613

> <OBJECTID>
9223373050470400014

> <PUBCHEM_COMPOUND_CID>
5281613

> <PUBCHEM_COMPOUND_CANONICALIZED>
1

> <PUBCHEM_CACTVS_COMPLEXITY>
995

> <PUBCHEM_CACTVS_HBOND_ACCEPTOR>
15

> <PUBCHEM_CACTVS_HBOND_DONOR>
8

> <PUBCHEM_CACTVS_ROTATABLE_BOND>
7

> <PUBCHEM_CACTVS_SUBSKEYS>
AAADcfB4PAAAAAAAAAAAAAAAAAAAAAAAAAA0aIECAAAAAACBQAAAGgAACAAADBSwmAMyDoAABgCIAqBSAAACCAAkIAAIiAEGiMgdNzaGNRqieWOl4BUPuQfI7LzOIAABCAAIQABAAAIQABCAAAAAAAAAAA==

> <PUBCHEM_IUPAC_OPENEYE_NAME>
5-hydroxy-2-(3-hydroxy-4-methoxy-phenyl)-7-[(2S,3R,4S,5S,6R)-3,4,5-trihydroxy-6-[[(2R,3R,4R,5R,6S)-3,4,5-trihydroxy-6-methyl-tetrahydropyran-2-yl]oxymethyl]tetrahydropyran-2-yl]oxy-chromen-4-one

> <PUBCHEM_IUPAC_CAS_NAME>
5-hydroxy-2-(3-hydroxy-4-methoxyphenyl)-7-[[(2S,3R,4S,5S,6R)-3,4,5-trihydroxy-6-[[(2R,3R,4R,5R,6S)-3,4,5-trihydroxy-6-methyl-2-oxanyl]oxymethyl]-2-oxanyl]oxy]-1-benzopyran-4-one

> <PUBCHEM_IUPAC_NAME_MARKUP>
5-hydroxy-2-(3-hydroxy-4-methoxyphenyl)-7-[(2<I>S</I>,3<I>R</I>,4<I>S</I>,5<I>S</I>,6<I>R</I>)-3,4,5-trihydroxy-6-[[(2<I>R</I>,3<I>R</I>,4<I>R</I>,5<I>R</I>,6<I>S</I>)-3,4,5-trihydroxy-6-methyloxan-2-yl]oxymethyl]oxan-2-yl]oxychromen-4-one

> <PUBCHEM_IUPAC_NAME>
5-hydroxy-2-(3-hydroxy-4-methoxyphenyl)-7-[(2S,3R,4S,5S,6R)-3,4,5-trihydroxy-6-[[(2R,3R,4R,5R,6S)-3,4,5-trihydroxy-6-methyloxan-2-yl]oxymethyl]oxan-2-yl]oxychromen-4-one

> <PUBCHEM_IUPAC_SYSTEMATIC_NAME>
2-(4-methoxy-3-oxidanyl-phenyl)-7-[(2S,3R,4S,5S,6R)-6-[[(2R,3R,4R,5R,6S)-6-methyl-3,4,5-tris(oxidanyl)oxan-2-yl]oxymethyl]-3,4,5-tris(oxidanyl)oxan-2-yl]oxy-5-oxidanyl-chromen-4-one

> <PUBCHEM_IUPAC_TRADITIONAL_NAME>
5-hydroxy-2-(3-hydroxy-4-methoxy-phenyl)-7-[(2S,3R,4S,5S,6R)-3,4,5-trihydroxy-6-[[(2R,3R,4R,5R,6S)-3,4,5-trihydroxy-6-methyl-tetrahydropyran-2-yl]oxymethyl]tetrahydropyran-2-yl]oxy-chromone

> <PUBCHEM_IUPAC_INCHI>
InChI=1S/C28H32O15/c1-10-21(32)23(34)25(36)27(40-10)39-9-19-22(33)24(35)26(37)28(43-19)41-12-6-14(30)20-15(31)8-17(42-18(20)7-12)11-3-4-16(38-2)13(29)5-11/h3-8,10,19,21-30,32-37H,9H2,1-2H3/t10-,19+,21-,22+,23+,24-,25+,26+,27+,28+/m0/s1

> <PUBCHEM_IUPAC_INCHIKEY>
GZSOSUNBTXMUFQ-YFAPSIMESA-N

> <PUBCHEM_XLOGP3_AA>
-0.8

> <PUBCHEM_EXACT_MASS>
608.17412031

> <PUBCHEM_MOLECULAR_FORMULA>
C28H32O15

> <PUBCHEM_MOLECULAR_WEIGHT>
608.5

> <PUBCHEM_OPENEYE_CAN_SMILES>
CC1C(C(C(C(O1)OCC2C(C(C(C(O2)OC3=CC(=C4C(=C3)OC(=CC4=O)C5=CC(=C(C=C5)OC)O)O)O)O)O)O)O)O

> <PUBCHEM_OPENEYE_ISO_SMILES>
C[C@H]1[C@@H]([C@H]([C@H]([C@@H](O1)OC[C@@H]2[C@H]([C@@H]([C@H]([C@@H](O2)OC3=CC(=C4C(=C3)OC(=CC4=O)C5=CC(=C(C=C5)OC)O)O)O)O)O)O)O)O

> <PUBCHEM_CACTVS_TPSA>
234

> <PUBCHEM_MONOISOTOPIC_WEIGHT>
608.17412031

> <PUBCHEM_TOTAL_CHARGE>
0

> <PUBCHEM_HEAVY_ATOM_COUNT>
43

> <PUBCHEM_ATOM_DEF_STEREO_COUNT>
10

> <PUBCHEM_ATOM_UDEF_STEREO_COUNT>
0

> <PUBCHEM_BOND_DEF_STEREO_COUNT>
0

> <PUBCHEM_BOND_UDEF_STEREO_COUNT>
0

> <PUBCHEM_ISOTOPIC_ATOM_COUNT>
0

> <PUBCHEM_COMPONENT_COUNT>
1

> <PUBCHEM_CACTVS_TAUTO_COUNT>
-1

> <PUBCHEM_COORDINATE_TYPE>
1
5
255

> <PUBCHEM_BONDANNOTATIONS>
23  10  5
11  31  8
11  35  8
16  26  5
25  27  6
28  29  8
28  30  8
29  31  8
21  3  5
30  32  8
31  33  8
32  33  8
33  34  8
34  36  8
35  36  8
37  38  8
37  39  8
38  40  8
39  41  8
17  4  6
40  42  8
41  42  8
18  5  5
24  6  5
19  7  6
20  8  6
22  9  6

$$$$
5281643
  SciTegic09112316442D

 53 56  0  0  1  0            999 V2000
    5.1350   -1.2857    0.0000 O   0  0
    6.8671   -1.2857    0.0000 O   0  0
    5.1350   -4.2857    0.0000 O   0  0
    3.4030   -3.2857    0.0000 O   0  0
    6.8671   -3.2857    0.0000 O   0  0
    2.5369   -1.7857    0.0000 O   0  0
    7.7331    1.2143    0.0000 O   0  0
    5.1350   -0.2857    0.0000 O   0  0
    4.2308    1.2112    0.0000 O   0  0
    5.9889    4.2836    0.0000 O   0  0
   11.1972    0.2143    0.0000 O   0  0
   11.1972   -1.7857    0.0000 O   0  0
    5.1350   -3.2857    0.0000 C   0  0  1  0  0  0
    4.2690   -2.7857    0.0000 C   0  0  2  0  0  0
    6.0010   -2.7857    0.0000 C   0  0  2  0  0  0
    4.2690   -1.7857    0.0000 C   0  0  1  0  0  0
    6.0010   -1.7857    0.0000 C   0  0  1  0  0  0
    3.4030   -1.2857    0.0000 C   0  0
    6.8671   -0.2857    0.0000 C   0  0
    7.7331    0.2143    0.0000 C   0  0
    6.0010    0.2143    0.0000 C   0  0
    6.0010    1.2143    0.0000 C   0  0
    6.8671    1.7143    0.0000 C   0  0
    8.5991   -0.2857    0.0000 C   0  0
    5.0910    1.7212    0.0000 C   0  0
    6.8831    2.7558    0.0000 C   0  0
    9.4651    0.2143    0.0000 C   0  0
    8.5991   -1.2857    0.0000 C   0  0
    5.0830    2.7628    0.0000 C   0  0
    5.9851    3.2836    0.0000 C   0  0
   10.3312   -0.2857    0.0000 C   0  0
    9.4651   -1.7857    0.0000 C   0  0
   10.3312   -1.2857    0.0000 C   0  0
    4.5981   -3.5957    0.0000 H   0  0
    4.2690   -3.4057    0.0000 H   0  0
    6.0010   -3.4057    0.0000 H   0  0
    4.2690   -1.1657    0.0000 H   0  0
    6.0010   -1.1657    0.0000 H   0  0
    3.8015   -0.8107    0.0000 H   0  0
    3.0044   -0.8107    0.0000 H   0  0
    4.5981   -4.5957    0.0000 H   0  0
    3.4030   -3.9057    0.0000 H   0  0
    6.8671   -3.9057    0.0000 H   0  0
    2.0000   -1.4757    0.0000 H   0  0
    7.4236    3.0596    0.0000 H   0  0
    9.4651    0.8343    0.0000 H   0  0
    8.0622   -1.5957    0.0000 H   0  0
    4.5449    3.0707    0.0000 H   0  0
    9.4651   -2.4057    0.0000 H   0  0
    3.6904    1.5150    0.0000 H   0  0
    5.4532    4.5957    0.0000 H   0  0
   11.1972    0.8343    0.0000 H   0  0
   11.1972   -2.4057    0.0000 H   0  0
  1 16  1  0
  1 17  1  0
 17  2  1  1
  2 19  1  0
 13  3  1  1
  3 41  1  0
 14  4  1  1
  4 42  1  0
 15  5  1  6
  5 43  1  0
  6 18  1  0
  6 44  1  0
  7 20  1  0
  7 23  1  0
  8 21  2  0
  9 25  1  0
  9 50  1  0
 10 30  1  0
 10 51  1  0
 11 31  1  0
 11 52  1  0
 12 33  1  0
 12 53  1  0
 13 14  1  0
 13 15  1  0
 13 34  1  0
 14 16  1  0
 14 35  1  0
 15 17  1  0
 15 36  1  0
 16 18  1  1
 16 37  1  0
 17 38  1  0
 18 39  1  0
 18 40  1  0
 19 20  2  0
 19 21  1  0
 20 24  1  0
 21 22  1  0
 22 23  1  0
 22 25  2  0
 23 26  2  0
 24 27  2  0
 24 28  1  0
 25 29  1  0
 26 30  1  0
 26 45  1  0
 27 31  1  0
 27 46  1  0
 28 32  2  0
 28 47  1  0
 29 30  2  0
 29 48  1  0
 31 33  2  0
 32 33  1  0
 32 49  1  0
M  END
> <Name>
5281643

> <OBJECTID>
9223373054765367310

> <PUBCHEM_COMPOUND_CID>
5281643

> <PUBCHEM_COMPOUND_CANONICALIZED>
1

> <PUBCHEM_CACTVS_COMPLEXITY>
758

> <PUBCHEM_CACTVS_HBOND_ACCEPTOR>
12

> <PUBCHEM_CACTVS_HBOND_DONOR>
8

> <PUBCHEM_CACTVS_ROTATABLE_BOND>
4

> <PUBCHEM_CACTVS_SUBSKEYS>
AAADceB4PAAAAAAAAAAAAAAAAAAAAAAAAAA0YIEAAAAAAACBQAAAGgAACAAADBSwmAMwDoAABgCIAqBSAAICCAAkIAAIiAFGiMgdNzaGNR6ieWGl4BUPuQfI7LzOIAABCAAIQABAAAIQABCAAAAAAAAAAA==

> <PUBCHEM_IUPAC_OPENEYE_NAME>
2-(3,4-dihydroxyphenyl)-5,7-dihydroxy-3-[(2S,3R,4S,5R,6R)-3,4,5-trihydroxy-6-(hydroxymethyl)tetrahydropyran-2-yl]oxy-chromen-4-one

> <PUBCHEM_IUPAC_CAS_NAME>
2-(3,4-dihydroxyphenyl)-5,7-dihydroxy-3-[[(2S,3R,4S,5R,6R)-3,4,5-trihydroxy-6-(hydroxymethyl)-2-oxanyl]oxy]-1-benzopyran-4-one

> <PUBCHEM_IUPAC_NAME_MARKUP>
2-(3,4-dihydroxyphenyl)-5,7-dihydroxy-3-[(2<I>S</I>,3<I>R</I>,4<I>S</I>,5<I>R</I>,6<I>R</I>)-3,4,5-trihydroxy-6-(hydroxymethyl)oxan-2-yl]oxychromen-4-one

> <PUBCHEM_IUPAC_NAME>
2-(3,4-dihydroxyphenyl)-5,7-dihydroxy-3-[(2S,3R,4S,5R,6R)-3,4,5-trihydroxy-6-(hydroxymethyl)oxan-2-yl]oxychromen-4-one

> <PUBCHEM_IUPAC_SYSTEMATIC_NAME>
2-[3,4-bis(oxidanyl)phenyl]-3-[(2S,3R,4S,5R,6R)-6-(hydroxymethyl)-3,4,5-tris(oxidanyl)oxan-2-yl]oxy-5,7-bis(oxidanyl)chromen-4-one

> <PUBCHEM_IUPAC_TRADITIONAL_NAME>
2-(3,4-dihydroxyphenyl)-5,7-dihydroxy-3-[(2S,3R,4S,5R,6R)-3,4,5-trihydroxy-6-methylol-tetrahydropyran-2-yl]oxy-chromone

> <PUBCHEM_IUPAC_INCHI>
InChI=1S/C21H20O12/c22-6-13-15(27)17(29)18(30)21(32-13)33-20-16(28)14-11(26)4-8(23)5-12(14)31-19(20)7-1-2-9(24)10(25)3-7/h1-5,13,15,17-18,21-27,29-30H,6H2/t13-,15+,17+,18-,21+/m1/s1

> <PUBCHEM_IUPAC_INCHIKEY>
OVSQVDMCBVZWGM-DTGCRPNFSA-N

> <PUBCHEM_XLOGP3_AA>
0.4

> <PUBCHEM_EXACT_MASS>
464.09547607

> <PUBCHEM_MOLECULAR_FORMULA>
C21H20O12

> <PUBCHEM_MOLECULAR_WEIGHT>
464.4

> <PUBCHEM_OPENEYE_CAN_SMILES>
C1=CC(=C(C=C1C2=C(C(=O)C3=C(C=C(C=C3O2)O)O)OC4C(C(C(C(O4)CO)O)O)O)O)O

> <PUBCHEM_OPENEYE_ISO_SMILES>
C1=CC(=C(C=C1C2=C(C(=O)C3=C(C=C(C=C3O2)O)O)O[C@H]4[C@@H]([C@H]([C@H]([C@H](O4)CO)O)O)O)O)O

> <PUBCHEM_CACTVS_TPSA>
207

> <PUBCHEM_MONOISOTOPIC_WEIGHT>
464.09547607

> <PUBCHEM_TOTAL_CHARGE>
0

> <PUBCHEM_HEAVY_ATOM_COUNT>
33

> <PUBCHEM_ATOM_DEF_STEREO_COUNT>
5

> <PUBCHEM_ATOM_UDEF_STEREO_COUNT>
0

> <PUBCHEM_BOND_DEF_STEREO_COUNT>
0

> <PUBCHEM_BOND_UDEF_STEREO_COUNT>
0

> <PUBCHEM_ISOTOPIC_ATOM_COUNT>
0

> <PUBCHEM_COMPONENT_COUNT>
1

> <PUBCHEM_CACTVS_TAUTO_COUNT>
162

> <PUBCHEM_COORDINATE_TYPE>
1
5
255

> <PUBCHEM_BONDANNOTATIONS>
16  18  5
19  20  8
19  21  8
17  2  5
21  22  8
22  23  8
22  25  8
23  26  8
24  27  8
24  28  8
25  29  8
26  30  8
27  31  8
28  32  8
29  30  8
13  3  5
31  33  8
32  33  8
14  4  5
15  5  6
7  20  8
7  23  8

$$$$
5281672
  SciTegic09112316442D

 33 35  0  0  0  0            999 V2000
    6.0682   -0.2704    0.0000 O   0  0
    7.8003    1.7296    0.0000 O   0  0
    4.3198    2.7642    0.0000 O   0  0
    6.0682    2.7296    0.0000 O   0  0
    2.5381   -0.2945    0.0000 O   0  0
   10.3984    0.2296    0.0000 O   0  0
    8.6663   -2.7704    0.0000 O   0  0
   10.3984   -1.7704    0.0000 O   0  0
    5.2022    1.2296    0.0000 C   0  0
    6.9343    0.2296    0.0000 C   0  0
    5.2022    0.2296    0.0000 C   0  0
    7.8003   -0.2704    0.0000 C   0  0
    6.9343    1.2296    0.0000 C   0  0
    6.0682    1.7296    0.0000 C   0  0
    4.3083    1.7643    0.0000 C   0  0
    4.3083   -0.3051    0.0000 C   0  0
    7.8003   -1.2704    0.0000 C   0  0
    8.6663    0.2296    0.0000 C   0  0
    3.4022    0.2088    0.0000 C   0  0
    3.4022    1.2504    0.0000 C   0  0
    9.5323   -0.2704    0.0000 C   0  0
    8.6663   -1.7704    0.0000 C   0  0
    9.5323   -1.2704    0.0000 C   0  0
    4.3154   -0.9250    0.0000 H   0  0
    7.2634   -1.5804    0.0000 H   0  0
    8.6663    0.8496    0.0000 H   0  0
    2.8665    1.5625    0.0000 H   0  0
    7.8003    2.3496    0.0000 H   0  0
    3.7865    3.0804    0.0000 H   0  0
    2.0000    0.0134    0.0000 H   0  0
   10.3984    0.8496    0.0000 H   0  0
    8.1294   -3.0804    0.0000 H   0  0
   10.3984   -2.3904    0.0000 H   0  0
  1 10  1  0
  1 11  1  0
  2 13  1  0
  2 28  1  0
  3 15  1  0
  3 29  1  0
  4 14  2  0
  5 19  1  0
  5 30  1  0
  6 21  1  0
  6 31  1  0
  7 22  1  0
  7 32  1  0
  8 23  1  0
  8 33  1  0
  9 11  1  0
  9 14  1  0
  9 15  2  0
 10 12  1  0
 10 13  2  0
 11 16  2  0
 12 17  2  0
 12 18  1  0
 13 14  1  0
 15 20  1  0
 16 19  1  0
 16 24  1  0
 17 22  1  0
 17 25  1  0
 18 21  2  0
 18 26  1  0
 19 20  2  0
 20 27  1  0
 21 23  1  0
 22 23  2  0
M  END
> <Name>
5281672

> <OBJECTID>
9223373059060334606

> <PUBCHEM_COMPOUND_CID>
5281672

> <PUBCHEM_COMPOUND_CANONICALIZED>
1

> <PUBCHEM_CACTVS_COMPLEXITY>
506

> <PUBCHEM_CACTVS_HBOND_ACCEPTOR>
8

> <PUBCHEM_CACTVS_HBOND_DONOR>
6

> <PUBCHEM_CACTVS_ROTATABLE_BOND>
1

> <PUBCHEM_CACTVS_SUBSKEYS>
AAADccBwPAAAAAAAAAAAAAAAAAAAAAAAAAAwYIAAAAAAAACBQAAAGgAACAAADASAmAAwBoAABgCIAqBSAAICCAAkIAAAiAFGiMgNJzaGNRqCeWGl4BUJuQfI7LzOIAABCAAIQABAAAIQABCAAAAAAAAAAA==

> <PUBCHEM_IUPAC_OPENEYE_NAME>
3,5,7-trihydroxy-2-(3,4,5-trihydroxyphenyl)chromen-4-one

> <PUBCHEM_IUPAC_CAS_NAME>
3,5,7-trihydroxy-2-(3,4,5-trihydroxyphenyl)-1-benzopyran-4-one

> <PUBCHEM_IUPAC_NAME_MARKUP>
3,5,7-trihydroxy-2-(3,4,5-trihydroxyphenyl)chromen-4-one

> <PUBCHEM_IUPAC_NAME>
3,5,7-trihydroxy-2-(3,4,5-trihydroxyphenyl)chromen-4-one

> <PUBCHEM_IUPAC_SYSTEMATIC_NAME>
3,5,7-tris(oxidanyl)-2-[3,4,5-tris(oxidanyl)phenyl]chromen-4-one

> <PUBCHEM_IUPAC_TRADITIONAL_NAME>
3,5,7-trihydroxy-2-(3,4,5-trihydroxyphenyl)chromone

> <PUBCHEM_IUPAC_INCHI>
InChI=1S/C15H10O8/c16-6-3-7(17)11-10(4-6)23-15(14(22)13(11)21)5-1-8(18)12(20)9(19)2-5/h1-4,16-20,22H

> <PUBCHEM_IUPAC_INCHIKEY>
IKMDFBPHZNJCSN-UHFFFAOYSA-N

> <PUBCHEM_XLOGP3>
1.2

> <PUBCHEM_EXACT_MASS>
318.03756727

> <PUBCHEM_MOLECULAR_FORMULA>
C15H10O8

> <PUBCHEM_MOLECULAR_WEIGHT>
318.23

> <PUBCHEM_OPENEYE_CAN_SMILES>
C1=C(C=C(C(=C1O)O)O)C2=C(C(=O)C3=C(C=C(C=C3O2)O)O)O

> <PUBCHEM_OPENEYE_ISO_SMILES>
C1=C(C=C(C(=C1O)O)O)C2=C(C(=O)C3=C(C=C(C=C3O2)O)O)O

> <PUBCHEM_CACTVS_TPSA>
148

> <PUBCHEM_MONOISOTOPIC_WEIGHT>
318.03756727

> <PUBCHEM_TOTAL_CHARGE>
0

> <PUBCHEM_HEAVY_ATOM_COUNT>
23

> <PUBCHEM_ATOM_DEF_STEREO_COUNT>
0

> <PUBCHEM_ATOM_UDEF_STEREO_COUNT>
0

> <PUBCHEM_BOND_DEF_STEREO_COUNT>
0

> <PUBCHEM_BOND_UDEF_STEREO_COUNT>
0

> <PUBCHEM_ISOTOPIC_ATOM_COUNT>
0

> <PUBCHEM_COMPONENT_COUNT>
1

> <PUBCHEM_CACTVS_TAUTO_COUNT>
-1

> <PUBCHEM_COORDINATE_TYPE>
1
5
255

> <PUBCHEM_BONDANNOTATIONS>
1  10  8
1  11  8
10  13  8
11  16  8
12  17  8
12  18  8
13  14  8
15  20  8
16  19  8
17  22  8
18  21  8
19  20  8
21  23  8
22  23  8
9  11  8
9  14  8
9  15  8

$$$$
5281675
  SciTegic09112316442D

 52 55  0  0  1  0            999 V2000
    5.1350   -1.0000    0.0000 O   0  0
    2.5369   -0.5000    0.0000 O   0  0
    2.5369   -2.5000    0.0000 O   0  0
    4.2690   -3.5000    0.0000 O   0  0
    6.0290    0.4653    0.0000 O   0  0
    6.0010   -3.5000    0.0000 O   0  0
    2.5369    0.5000    0.0000 O   0  0
    4.2690    3.5000    0.0000 O   0  0
    6.0174    3.5346    0.0000 O   0  0
    8.6555   -2.0275    0.0000 O   0  0
   10.3914   -1.0341    0.0000 O   0  0
    3.4030   -1.0000    0.0000 C   0  0  2  0  0  0
    3.4030   -2.0000    0.0000 C   0  0  2  0  0  0
    4.2690   -0.5000    0.0000 C   0  0  2  0  0  0
    4.2690   -2.5000    0.0000 C   0  0  1  0  0  0
    5.1350   -2.0000    0.0000 C   0  0  1  0  0  0
    4.2690    0.5000    0.0000 C   0  0
    6.0010   -2.5000    0.0000 C   0  0
    5.1350    1.0000    0.0000 C   0  0
    3.4030    1.0000    0.0000 C   0  0
    5.1350    2.0000    0.0000 C   0  0
    3.4030    2.0000    0.0000 C   0  0
    4.2690    2.5000    0.0000 C   0  0
    6.0290    2.5347    0.0000 C   0  0
    6.9350    0.9792    0.0000 C   0  0
    6.9350    2.0208    0.0000 C   0  0
    7.7991    0.4758    0.0000 C   0  0
    7.7953   -0.5241    0.0000 C   0  0
    8.6671    0.9725    0.0000 C   0  0
    8.6594   -1.0275    0.0000 C   0  0
    9.5312    0.4692    0.0000 C   0  0
    9.5273   -0.5308    0.0000 C   0  0
    3.4030   -0.3800    0.0000 H   0  0
    3.4030   -2.6200    0.0000 H   0  0
    5.0051   -0.0750    0.0000 H   0  0
    4.8059   -2.8100    0.0000 H   0  0
    5.6720   -1.6900    0.0000 H   0  0
    6.6116   -2.6077    0.0000 H   0  0
    6.2131   -1.9174    0.0000 H   0  0
    2.0000   -0.8100    0.0000 H   0  0
    2.5369   -3.1200    0.0000 H   0  0
    3.7320   -3.8100    0.0000 H   0  0
    2.8660    2.3100    0.0000 H   0  0
    6.5380   -3.8100    0.0000 H   0  0
    7.4708    2.3329    0.0000 H   0  0
    2.0000    0.8100    0.0000 H   0  0
    3.7320    3.8100    0.0000 H   0  0
    7.2571   -0.8321    0.0000 H   0  0
    8.6694    1.5925    0.0000 H   0  0
   10.0693    0.7771    0.0000 H   0  0
    9.1912   -2.3395    0.0000 H   0  0
   10.9295   -0.7262    0.0000 H   0  0
  1 14  1  0
  1 16  1  0
 12  2  1  1
  2 40  1  0
 13  3  1  6
  3 41  1  0
 15  4  1  1
  4 42  1  0
  5 19  1  0
  5 25  1  0
  6 18  1  0
  6 44  1  0
  7 20  1  0
  7 46  1  0
  8 23  1  0
  8 47  1  0
  9 24  2  0
 10 30  1  0
 10 51  1  0
 11 32  1  0
 11 52  1  0
 12 13  1  0
 12 14  1  0
 12 33  1  0
 13 15  1  0
 13 34  1  0
 14 17  1  0
 14 35  1  1
 15 16  1  0
 15 36  1  0
 16 18  1  6
 16 37  1  0
 17 19  1  0
 17 20  2  0
 18 38  1  0
 18 39  1  0
 19 21  2  0
 20 22  1  0
 21 23  1  0
 21 24  1  0
 22 23  2  0
 22 43  1  0
 24 26  1  0
 25 26  2  0
 25 27  1  0
 26 45  1  0
 27 28  2  0
 27 29  1  0
 28 30  1  0
 28 48  1  0
 29 31  2  0
 29 49  1  0
 30 32  2  0
 31 32  1  0
 31 50  1  0
M  END
> <Name>
5281675

> <OBJECTID>
9223373063355301902

> <PUBCHEM_COMPOUND_CID>
5281675

> <PUBCHEM_COMPOUND_CANONICALIZED>
1

> <PUBCHEM_CACTVS_COMPLEXITY>
729

> <PUBCHEM_CACTVS_HBOND_ACCEPTOR>
11

> <PUBCHEM_CACTVS_HBOND_DONOR>
8

> <PUBCHEM_CACTVS_ROTATABLE_BOND>
3

> <PUBCHEM_CACTVS_SUBSKEYS>
AAADceB4PAAAAAAAAAAAAAAAAAAAAAAAAAA0YIEAAAAAAACBQAAAGgAACAAADBSgmAIwBoAABgCIAqBSAAACCAAkIAAIiAEGiMgNNzaGNRqCeWGl4BULuQfI7PzOIAADCAAIQABAAAYQABCAAAAAAAAAAA==

> <PUBCHEM_IUPAC_OPENEYE_NAME>
2-(3,4-dihydroxyphenyl)-5,7-dihydroxy-8-[(2S,3R,4R,5S,6R)-3,4,5-trihydroxy-6-(hydroxymethyl)tetrahydropyran-2-yl]chromen-4-one

> <PUBCHEM_IUPAC_CAS_NAME>
2-(3,4-dihydroxyphenyl)-5,7-dihydroxy-8-[(2S,3R,4R,5S,6R)-3,4,5-trihydroxy-6-(hydroxymethyl)-2-oxanyl]-1-benzopyran-4-one

> <PUBCHEM_IUPAC_NAME_MARKUP>
2-(3,4-dihydroxyphenyl)-5,7-dihydroxy-8-[(2<I>S</I>,3<I>R</I>,4<I>R</I>,5<I>S</I>,6<I>R</I>)-3,4,5-trihydroxy-6-(hydroxymethyl)oxan-2-yl]chromen-4-one

> <PUBCHEM_IUPAC_NAME>
2-(3,4-dihydroxyphenyl)-5,7-dihydroxy-8-[(2S,3R,4R,5S,6R)-3,4,5-trihydroxy-6-(hydroxymethyl)oxan-2-yl]chromen-4-one

> <PUBCHEM_IUPAC_SYSTEMATIC_NAME>
2-[3,4-bis(oxidanyl)phenyl]-8-[(2S,3R,4R,5S,6R)-6-(hydroxymethyl)-3,4,5-tris(oxidanyl)oxan-2-yl]-5,7-bis(oxidanyl)chromen-4-one

> <PUBCHEM_IUPAC_TRADITIONAL_NAME>
2-(3,4-dihydroxyphenyl)-5,7-dihydroxy-8-[(2S,3R,4R,5S,6R)-3,4,5-trihydroxy-6-methylol-tetrahydropyran-2-yl]chromone

> <PUBCHEM_IUPAC_INCHI>
InChI=1S/C21H20O11/c22-6-14-17(28)18(29)19(30)21(32-14)16-11(26)4-10(25)15-12(27)5-13(31-20(15)16)7-1-2-8(23)9(24)3-7/h1-5,14,17-19,21-26,28-30H,6H2/t14-,17-,18+,19-,21+/m1/s1

> <PUBCHEM_IUPAC_INCHIKEY>
PLAPMLGJVGLZOV-VPRICQMDSA-N

> <PUBCHEM_XLOGP3_AA>
-0.2

> <PUBCHEM_EXACT_MASS>
448.10056145

> <PUBCHEM_MOLECULAR_FORMULA>
C21H20O11

> <PUBCHEM_MOLECULAR_WEIGHT>
448.4

> <PUBCHEM_OPENEYE_CAN_SMILES>
C1=CC(=C(C=C1C2=CC(=O)C3=C(O2)C(=C(C=C3O)O)C4C(C(C(C(O4)CO)O)O)O)O)O

> <PUBCHEM_OPENEYE_ISO_SMILES>
C1=CC(=C(C=C1C2=CC(=O)C3=C(O2)C(=C(C=C3O)O)[C@H]4[C@@H]([C@H]([C@@H]([C@H](O4)CO)O)O)O)O)O

> <PUBCHEM_CACTVS_TPSA>
197

> <PUBCHEM_MONOISOTOPIC_WEIGHT>
448.10056145

> <PUBCHEM_TOTAL_CHARGE>
0

> <PUBCHEM_HEAVY_ATOM_COUNT>
32

> <PUBCHEM_ATOM_DEF_STEREO_COUNT>
5

> <PUBCHEM_ATOM_UDEF_STEREO_COUNT>
0

> <PUBCHEM_BOND_DEF_STEREO_COUNT>
0

> <PUBCHEM_BOND_UDEF_STEREO_COUNT>
0

> <PUBCHEM_ISOTOPIC_ATOM_COUNT>
0

> <PUBCHEM_COMPONENT_COUNT>
1

> <PUBCHEM_CACTVS_TAUTO_COUNT>
162

> <PUBCHEM_COORDINATE_TYPE>
1
5
255

> <PUBCHEM_BONDANNOTATIONS>
14  35  5
16  18  6
17  19  8
17  20  8
19  21  8
12  2  5
20  22  8
21  23  8
21  24  8
22  23  8
24  26  8
25  26  8
27  28  8
27  29  8
28  30  8
29  31  8
13  3  6
30  32  8
31  32  8
15  4  5
5  19  8
5  25  8

$$$$
5282150
  SciTegic09112316442D

 71 75  0  0  1  0            999 V2000
    6.8671   -3.6796    0.0000 O   0  0
    5.1350   -1.6796    0.0000 O   0  0
    7.7331   -2.1796    0.0000 O   0  0
    5.1350   -4.6796    0.0000 O   0  0
    6.8671   -1.6796    0.0000 O   0  0
    3.4030   -3.6796    0.0000 O   0  0
    8.5991   -4.6796    0.0000 O   0  0
   10.3312   -3.6796    0.0000 O   0  0
   10.3312   -1.6796    0.0000 O   0  0
    2.5369   -2.1796    0.0000 O   0  0
    8.6230    1.3829    0.0000 O   0  0
    5.1208    1.3996    0.0000 O   0  0
    6.0308    2.8930    0.0000 O   0  0
   12.0987    4.3696    0.0000 O   0  0
    6.0010   -3.1796    0.0000 C   0  0  2  0  0  0
    5.1350   -3.6796    0.0000 C   0  0  2  0  0  0
    4.2690   -3.1796    0.0000 C   0  0  1  0  0  0
    7.7331   -3.1796    0.0000 C   0  0  2  0  0  0
    8.5991   -3.6796    0.0000 C   0  0  1  0  0  0
    6.0010   -2.1796    0.0000 C   0  0  1  0  0  0
    4.2690   -2.1796    0.0000 C   0  0  1  0  0  0
    9.4651   -3.1796    0.0000 C   0  0  1  0  0  0
    9.4651   -2.1796    0.0000 C   0  0  2  0  0  0
    8.5991   -1.6796    0.0000 C   0  0  2  0  0  0
    3.4030   -1.6796    0.0000 C   0  0
    8.5991   -0.6796    0.0000 C   0  0
    6.8671   -0.6796    0.0000 C   0  0
    7.7671   -0.1553    0.0000 C   0  0
    5.9670   -0.1553    0.0000 C   0  0
    7.7551    0.8863    0.0000 C   0  0
    5.9790    0.8863    0.0000 C   0  0
    6.8910    1.3896    0.0000 C   0  0
    6.8948    2.3896    0.0000 C   0  0
    8.6269    2.3829    0.0000 C   0  0
    7.7628    2.8863    0.0000 C   0  0
    9.4948    2.8796    0.0000 C   0  0
    9.4987    3.8796    0.0000 C   0  0
   10.3589    2.3763    0.0000 C   0  0
   10.3666    4.3762    0.0000 C   0  0
   11.2269    2.8729    0.0000 C   0  0
   11.2307    3.8729    0.0000 C   0  0
    6.0010   -3.7996    0.0000 H   0  0
    4.5981   -3.9896    0.0000 H   0  0
    4.2690   -3.7996    0.0000 H   0  0
    7.1962   -2.8696    0.0000 H   0  0
    8.0622   -3.9896    0.0000 H   0  0
    6.5380   -2.4896    0.0000 H   0  0
    4.2690   -1.5596    0.0000 H   0  0
    9.4651   -3.7996    0.0000 H   0  0
   10.0021   -2.4896    0.0000 H   0  0
    8.0622   -1.3696    0.0000 H   0  0
    3.8015   -1.2046    0.0000 H   0  0
    3.0044   -1.2046    0.0000 H   0  0
    9.2191   -0.6796    0.0000 H   0  0
    8.5991   -0.0596    0.0000 H   0  0
    7.9791   -0.6796    0.0000 H   0  0
    4.5981   -4.9896    0.0000 H   0  0
    3.4030   -4.2996    0.0000 H   0  0
    9.1360   -4.9896    0.0000 H   0  0
   10.8681   -3.3696    0.0000 H   0  0
   10.8681   -1.9896    0.0000 H   0  0
    2.0000   -1.8696    0.0000 H   0  0
    8.3064   -0.4611    0.0000 H   0  0
    5.4277   -0.4611    0.0000 H   0  0
    7.7652    3.5063    0.0000 H   0  0
    4.5792    1.0979    0.0000 H   0  0
    8.9630    4.1916    0.0000 H   0  0
   10.3565    1.7563    0.0000 H   0  0
   10.3690    4.9962    0.0000 H   0  0
   11.7626    2.5608    0.0000 H   0  0
   12.1011    4.9896    0.0000 H   0  0
 15  1  1  6
 18  1  1  6
  2 20  1  0
  2 21  1  0
  3 18  1  0
  3 24  1  0
 16  4  1  1
  4 57  1  0
 20  5  1  1
  5 27  1  0
 17  6  1  6
  6 58  1  0
 19  7  1  1
  7 59  1  0
 22  8  1  1
  8 60  1  0
 23  9  1  6
  9 61  1  0
 10 25  1  0
 10 62  1  0
 11 30  1  0
 11 34  1  0
 12 31  1  0
 12 66  1  0
 13 33  2  0
 14 41  1  0
 14 71  1  0
 15 16  1  0
 15 20  1  0
 15 42  1  0
 16 17  1  0
 16 43  1  0
 17 21  1  0
 17 44  1  0
 18 19  1  0
 18 45  1  0
 19 22  1  0
 19 46  1  0
 20 47  1  0
 21 25  1  1
 21 48  1  0
 22 23  1  0
 22 49  1  0
 23 24  1  0
 23 50  1  0
 24 26  1  1
 24 51  1  0
 25 52  1  0
 25 53  1  0
 26 54  1  0
 26 55  1  0
 26 56  1  0
 27 28  1  0
 27 29  2  0
 28 30  2  0
 28 63  1  0
 29 31  1  0
 29 64  1  0
 30 32  1  0
 31 32  2  0
 32 33  1  0
 33 35  1  0
 34 35  2  0
 34 36  1  0
 35 65  1  0
 36 37  2  0
 36 38  1  0
 37 39  1  0
 37 67  1  0
 38 40  2  0
 38 68  1  0
 39 41  2  0
 39 69  1  0
 40 41  1  0
 40 70  1  0
M  END
> <Name>
5282150

> <OBJECTID>
9223373067650269198

> <PUBCHEM_COMPOUND_CID>
5282150

> <PUBCHEM_COMPOUND_CANONICALIZED>
1

> <PUBCHEM_CACTVS_COMPLEXITY>
939

> <PUBCHEM_CACTVS_HBOND_ACCEPTOR>
14

> <PUBCHEM_CACTVS_HBOND_DONOR>
8

> <PUBCHEM_CACTVS_ROTATABLE_BOND>
6

> <PUBCHEM_CACTVS_SUBSKEYS>
AAADceB4PAAAAAAAAAAAAAAAAAAAAAAAAAA0aIECAAAAAACBQAAAGgAACAAADBSwmAMyDoAABgCIAqBSAAACCAAkIAAIiAEGCMgdNzaGNRqieWCl4BUPuQfI7KzOIAAACAAIAABAAAAQABAAAAAAAAAAAA==

> <PUBCHEM_IUPAC_OPENEYE_NAME>
7-[(2S,3R,4S,5S,6R)-4,5-dihydroxy-6-(hydroxymethyl)-3-[(2S,3R,4R,5R,6S)-3,4,5-trihydroxy-6-methyl-tetrahydropyran-2-yl]oxy-tetrahydropyran-2-yl]oxy-5-hydroxy-2-(4-hydroxyphenyl)chromen-4-one

> <PUBCHEM_IUPAC_CAS_NAME>
7-[[(2S,3R,4S,5S,6R)-4,5-dihydroxy-6-(hydroxymethyl)-3-[[(2S,3R,4R,5R,6S)-3,4,5-trihydroxy-6-methyl-2-oxanyl]oxy]-2-oxanyl]oxy]-5-hydroxy-2-(4-hydroxyphenyl)-1-benzopyran-4-one

> <PUBCHEM_IUPAC_NAME_MARKUP>
7-[(2<I>S</I>,3<I>R</I>,4<I>S</I>,5<I>S</I>,6<I>R</I>)-4,5-dihydroxy-6-(hydroxymethyl)-3-[(2<I>S</I>,3<I>R</I>,4<I>R</I>,5<I>R</I>,6<I>S</I>)-3,4,5-trihydroxy-6-methyloxan-2-yl]oxyoxan-2-yl]oxy-5-hydroxy-2-(4-hydroxyphenyl)chromen-4-one

> <PUBCHEM_IUPAC_NAME>
7-[(2S,3R,4S,5S,6R)-4,5-dihydroxy-6-(hydroxymethyl)-3-[(2S,3R,4R,5R,6S)-3,4,5-trihydroxy-6-methyloxan-2-yl]oxyoxan-2-yl]oxy-5-hydroxy-2-(4-hydroxyphenyl)chromen-4-one

> <PUBCHEM_IUPAC_SYSTEMATIC_NAME>
7-[(2S,3R,4S,5S,6R)-6-(hydroxymethyl)-3-[(2S,3R,4R,5R,6S)-6-methyl-3,4,5-tris(oxidanyl)oxan-2-yl]oxy-4,5-bis(oxidanyl)oxan-2-yl]oxy-2-(4-hydroxyphenyl)-5-oxidanyl-chromen-4-one

> <PUBCHEM_IUPAC_TRADITIONAL_NAME>
7-[(2S,3R,4S,5S,6R)-4,5-dihydroxy-6-methylol-3-[(2S,3R,4R,5R,6S)-3,4,5-trihydroxy-6-methyl-tetrahydropyran-2-yl]oxy-tetrahydropyran-2-yl]oxy-5-hydroxy-2-(4-hydroxyphenyl)chromone

> <PUBCHEM_IUPAC_INCHI>
InChI=1S/C27H30O14/c1-10-20(32)22(34)24(36)26(37-10)41-25-23(35)21(33)18(9-28)40-27(25)38-13-6-14(30)19-15(31)8-16(39-17(19)7-13)11-2-4-12(29)5-3-11/h2-8,10,18,20-30,32-36H,9H2,1H3/t10-,18+,20-,21+,22+,23-,24+,25+,26-,27+/m0/s1

> <PUBCHEM_IUPAC_INCHIKEY>
RPMNUQRUHXIGHK-PYXJVEIZSA-N

> <PUBCHEM_XLOGP3_AA>
-0.2

> <PUBCHEM_EXACT_MASS>
578.16355563

> <PUBCHEM_MOLECULAR_FORMULA>
C27H30O14

> <PUBCHEM_MOLECULAR_WEIGHT>
578.5

> <PUBCHEM_OPENEYE_CAN_SMILES>
CC1C(C(C(C(O1)OC2C(C(C(OC2OC3=CC(=C4C(=C3)OC(=CC4=O)C5=CC=C(C=C5)O)O)CO)O)O)O)O)O

> <PUBCHEM_OPENEYE_ISO_SMILES>
C[C@H]1[C@@H]([C@H]([C@H]([C@@H](O1)O[C@@H]2[C@H]([C@@H]([C@H](O[C@H]2OC3=CC(=C4C(=C3)OC(=CC4=O)C5=CC=C(C=C5)O)O)CO)O)O)O)O)O

> <PUBCHEM_CACTVS_TPSA>
225

> <PUBCHEM_MONOISOTOPIC_WEIGHT>
578.16355563

> <PUBCHEM_TOTAL_CHARGE>
0

> <PUBCHEM_HEAVY_ATOM_COUNT>
41

> <PUBCHEM_ATOM_DEF_STEREO_COUNT>
10

> <PUBCHEM_ATOM_UDEF_STEREO_COUNT>
0

> <PUBCHEM_BOND_DEF_STEREO_COUNT>
0

> <PUBCHEM_BOND_UDEF_STEREO_COUNT>
0

> <PUBCHEM_ISOTOPIC_ATOM_COUNT>
0

> <PUBCHEM_COMPONENT_COUNT>
1

> <PUBCHEM_CACTVS_TAUTO_COUNT>
24

> <PUBCHEM_COORDINATE_TYPE>
1
5
255

> <PUBCHEM_BONDANNOTATIONS>
15  1  6
18  1  6
11  30  8
11  34  8
21  25  5
24  26  5
27  28  8
27  29  8
28  30  8
29  31  8
30  32  8
31  32  8
32  33  8
33  35  8
34  35  8
36  37  8
36  38  8
37  39  8
38  40  8
39  41  8
16  4  5
40  41  8
20  5  5
17  6  6
19  7  5
22  8  5
23  9  6

$$$$
5282945
  SciTegic09112316442D

 53 52  0  0  1  0            999 V2000
    9.7942   -0.9050    0.0000 O   0  0
   17.5885    0.5950    0.0000 O   0  0
   16.7224   -0.9050    0.0000 O   0  0
   12.3923    0.5950    0.0000 C   0  0
   13.2583    0.0950    0.0000 C   0  0
   11.5263    0.0950    0.0000 C   0  0
   14.1244    0.5950    0.0000 C   0  0
   10.6603    0.5950    0.0000 C   0  0
   14.9904    0.0950    0.0000 C   0  0
    9.7942    0.0950    0.0000 C   0  0
   15.8564    0.5950    0.0000 C   0  0
    8.9282    0.5950    0.0000 C   0  0
    4.5981    0.0950    0.0000 C   0  0
    3.7320    0.5950    0.0000 C   0  0
    5.4641    0.5950    0.0000 C   0  0
    2.8660    0.0950    0.0000 C   0  0
    8.0622    0.0950    0.0000 C   0  0
   16.7224    0.0950    0.0000 C   0  0
    6.3301    0.0950    0.0000 C   0  0
    7.1962    0.5950    0.0000 C   0  0
    2.0000    0.5950    0.0000 C   0  0
   12.7908    1.0700    0.0000 H   0  0
   11.9938    1.0700    0.0000 H   0  0
   12.8598   -0.3799    0.0000 H   0  0
   13.6569   -0.3799    0.0000 H   0  0
   11.1278   -0.3799    0.0000 H   0  0
   11.9248   -0.3799    0.0000 H   0  0
   14.5229    1.0700    0.0000 H   0  0
   13.7258    1.0700    0.0000 H   0  0
   11.0588    1.0700    0.0000 H   0  0
   10.2617    1.0700    0.0000 H   0  0
   14.5919   -0.3799    0.0000 H   0  0
   15.3889   -0.3799    0.0000 H   0  0
    9.0581   -0.3300    0.0000 H   0  0
   16.2549    1.0700    0.0000 H   0  0
   15.4579    1.0700    0.0000 H   0  0
    8.9282    1.2150    0.0000 H   0  0
    4.1996   -0.3799    0.0000 H   0  0
    4.9966   -0.3799    0.0000 H   0  0
    4.1306    1.0700    0.0000 H   0  0
    3.3335    1.0700    0.0000 H   0  0
    5.8626    1.0700    0.0000 H   0  0
    5.0656    1.0700    0.0000 H   0  0
    2.4675   -0.3799    0.0000 H   0  0
    3.2646   -0.3799    0.0000 H   0  0
   10.3312   -1.2150    0.0000 H   0  0
    8.0622   -0.5250    0.0000 H   0  0
    6.3301   -0.5250    0.0000 H   0  0
    7.1962    1.2150    0.0000 H   0  0
    2.3100    1.1319    0.0000 H   0  0
    1.4631    0.9050    0.0000 H   0  0
    1.6900    0.0581    0.0000 H   0  0
   18.1254    0.2850    0.0000 H   0  0
  1 10  1  0
  1 46  1  0
  2 18  1  0
  2 53  1  0
  3 18  2  0
  4  5  1  0
  4  6  1  0
  4 22  1  0
  4 23  1  0
  5  7  1  0
  5 24  1  0
  5 25  1  0
  6  8  1  0
  6 26  1  0
  6 27  1  0
  7  9  1  0
  7 28  1  0
  7 29  1  0
  8 10  1  0
  8 30  1  0
  8 31  1  0
  9 11  1  0
  9 32  1  0
  9 33  1  0
 10 12  1  0
 10 34  1  0
 11 18  1  0
 11 35  1  0
 11 36  1  0
 12 17  2  0
 12 37  1  0
 13 14  1  0
 13 15  1  0
 13 38  1  0
 13 39  1  0
 14 16  1  0
 14 40  1  0
 14 41  1  0
 15 19  1  0
 15 42  1  0
 15 43  1  0
 16 21  1  0
 16 44  1  0
 16 45  1  0
 17 20  1  0
 17 47  1  0
 19 20  2  0
 19 48  1  0
 20 49  1  0
 21 50  1  0
 21 51  1  0
 21 52  1  0
M  END
> <Name>
5282945

> <OBJECTID>
9223373071945236494

> <PUBCHEM_COMPOUND_CID>
5282945

> <PUBCHEM_COMPOUND_CANONICALIZED>
1

> <PUBCHEM_CACTVS_COMPLEXITY>
295

> <PUBCHEM_CACTVS_HBOND_ACCEPTOR>
3

> <PUBCHEM_CACTVS_HBOND_DONOR>
2

> <PUBCHEM_CACTVS_ROTATABLE_BOND>
14

> <PUBCHEM_CACTVS_SUBSKEYS>
AAADcfB4MAAAAAAAAAAAAAAAAAAAAAAAAAAAAAAAAAAAAAAAAAAAGgAACAAACBSggAICCAAAAgCIACDSCAAAAAAgAAAICAEAAAgIFBIAAQAAUAAEgAAIkAOIyKCAAAAAAAAAAAAAAAAAAAAAAAAAAAAAAA==

> <PUBCHEM_IUPAC_OPENEYE_NAME>
(10E,12E)-9-hydroxyoctadeca-10,12-dienoic acid

> <PUBCHEM_IUPAC_CAS_NAME>
(10E,12E)-9-hydroxyoctadeca-10,12-dienoic acid

> <PUBCHEM_IUPAC_NAME_MARKUP>
(10<I>E</I>,12<I>E</I>)-9-hydroxyoctadeca-10,12-dienoic acid

> <PUBCHEM_IUPAC_NAME>
(10E,12E)-9-hydroxyoctadeca-10,12-dienoic acid

> <PUBCHEM_IUPAC_SYSTEMATIC_NAME>
(10E,12E)-9-oxidanyloctadeca-10,12-dienoic acid

> <PUBCHEM_IUPAC_TRADITIONAL_NAME>
(10E,12E)-9-hydroxyoctadeca-10,12-dienoic acid

> <PUBCHEM_IUPAC_INCHI>
InChI=1S/C18H32O3/c1-2-3-4-5-6-8-11-14-17(19)15-12-9-7-10-13-16-18(20)21/h6,8,11,14,17,19H,2-5,7,9-10,12-13,15-16H2,1H3,(H,20,21)/b8-6+,14-11+

> <PUBCHEM_IUPAC_INCHIKEY>
NPDSHTNEKLQQIJ-SIGMCMEVSA-N

> <PUBCHEM_XLOGP3_AA>
5.3

> <PUBCHEM_EXACT_MASS>
296.23514488

> <PUBCHEM_MOLECULAR_FORMULA>
C18H32O3

> <PUBCHEM_MOLECULAR_WEIGHT>
296.4

> <PUBCHEM_OPENEYE_CAN_SMILES>
CCCCCC=CC=CC(CCCCCCCC(=O)O)O

> <PUBCHEM_OPENEYE_ISO_SMILES>
CCCCC/C=C/C=C/C(CCCCCCCC(=O)O)O

> <PUBCHEM_CACTVS_TPSA>
57.5

> <PUBCHEM_MONOISOTOPIC_WEIGHT>
296.23514488

> <PUBCHEM_TOTAL_CHARGE>
0

> <PUBCHEM_HEAVY_ATOM_COUNT>
21

> <PUBCHEM_ATOM_DEF_STEREO_COUNT>
0

> <PUBCHEM_ATOM_UDEF_STEREO_COUNT>
1

> <PUBCHEM_BOND_DEF_STEREO_COUNT>
2

> <PUBCHEM_BOND_UDEF_STEREO_COUNT>
0

> <PUBCHEM_ISOTOPIC_ATOM_COUNT>
0

> <PUBCHEM_COMPONENT_COUNT>
1

> <PUBCHEM_CACTVS_TAUTO_COUNT>
1

> <PUBCHEM_COORDINATE_TYPE>
1
5
255

> <PUBCHEM_BONDANNOTATIONS>
10  34  3

$$$$
5282947
  SciTegic09112316442D

 53 52  0  0  1  0            999 V2000
    6.3301    2.0950    0.0000 O   0  0
   13.2583   -3.9050    0.0000 O   0  0
   14.1244   -2.4050    0.0000 O   0  0
   11.5263    0.0950    0.0000 C   0  0
   10.6603    0.5950    0.0000 C   0  0
   11.5263   -0.9050    0.0000 C   0  0
   10.6603    1.5950    0.0000 C   0  0
   12.3923   -1.4050    0.0000 C   0  0
    4.5981    3.0950    0.0000 C   0  0
    5.4641    3.5950    0.0000 C   0  0
    3.7320    3.5950    0.0000 C   0  0
    9.7942    2.0950    0.0000 C   0  0
    6.3301    3.0950    0.0000 C   0  0
    2.8660    3.0950    0.0000 C   0  0
   12.3923   -2.4050    0.0000 C   0  0
    9.7942    3.0950    0.0000 C   0  0
    7.1962    3.5950    0.0000 C   0  0
    2.0000    3.5950    0.0000 C   0  0
    8.9282    3.5950    0.0000 C   0  0
    8.0622    3.0950    0.0000 C   0  0
   13.2583   -2.9050    0.0000 C   0  0
   12.1369   -0.0127    0.0000 H   0  0
   11.7383    0.6776    0.0000 H   0  0
   10.0497    0.7027    0.0000 H   0  0
   10.4482    0.0124    0.0000 H   0  0
   10.9157   -0.7973    0.0000 H   0  0
   11.3142   -1.4876    0.0000 H   0  0
   11.2708    1.4873    0.0000 H   0  0
   10.8723    2.1776    0.0000 H   0  0
   13.0029   -1.5127    0.0000 H   0  0
   12.6044   -0.8224    0.0000 H   0  0
    4.1996    2.6200    0.0000 H   0  0
    4.9966    2.6200    0.0000 H   0  0
    5.8626    4.0700    0.0000 H   0  0
    5.0656    4.0700    0.0000 H   0  0
    4.1306    4.0700    0.0000 H   0  0
    3.3335    4.0700    0.0000 H   0  0
    9.1836    2.2027    0.0000 H   0  0
    9.5822    1.5124    0.0000 H   0  0
    6.8671    2.7850    0.0000 H   0  0
    2.4675    2.6200    0.0000 H   0  0
    3.2646    2.6200    0.0000 H   0  0
   11.7817   -2.2973    0.0000 H   0  0
   12.1803   -2.9876    0.0000 H   0  0
   10.3312    3.4050    0.0000 H   0  0
    7.1962    4.2150    0.0000 H   0  0
    2.3100    4.1319    0.0000 H   0  0
    1.4631    3.9050    0.0000 H   0  0
    1.6900    3.0581    0.0000 H   0  0
    8.9282    4.2150    0.0000 H   0  0
    8.0622    2.4750    0.0000 H   0  0
    5.7932    1.7850    0.0000 H   0  0
   13.7953   -4.2150    0.0000 H   0  0
  1 13  1  0
  1 52  1  0
  2 21  1  0
  2 53  1  0
  3 21  2  0
  4  5  1  0
  4  6  1  0
  4 22  1  0
  4 23  1  0
  5  7  1  0
  5 24  1  0
  5 25  1  0
  6  8  1  0
  6 26  1  0
  6 27  1  0
  7 12  1  0
  7 28  1  0
  7 29  1  0
  8 15  1  0
  8 30  1  0
  8 31  1  0
  9 10  1  0
  9 11  1  0
  9 32  1  0
  9 33  1  0
 10 13  1  0
 10 34  1  0
 10 35  1  0
 11 14  1  0
 11 36  1  0
 11 37  1  0
 12 16  1  0
 12 38  1  0
 12 39  1  0
 13 17  1  0
 13 40  1  0
 14 18  1  0
 14 41  1  0
 14 42  1  0
 15 21  1  0
 15 43  1  0
 15 44  1  0
 16 19  2  0
 16 45  1  0
 17 20  2  0
 17 46  1  0
 18 47  1  0
 18 48  1  0
 18 49  1  0
 19 20  1  0
 19 50  1  0
 20 51  1  0
M  END
> <Name>
5282947

> <OBJECTID>
9223373076240203790

> <PUBCHEM_COMPOUND_CID>
5282947

> <PUBCHEM_COMPOUND_CANONICALIZED>
1

> <PUBCHEM_CACTVS_COMPLEXITY>
295

> <PUBCHEM_CACTVS_HBOND_ACCEPTOR>
3

> <PUBCHEM_CACTVS_HBOND_DONOR>
2

> <PUBCHEM_CACTVS_ROTATABLE_BOND>
14

> <PUBCHEM_CACTVS_SUBSKEYS>
AAADcfB4MAAAAAAAAAAAAAAAAAAAAAAAAAAAAAAAAAAAAAAAAAAAGgAACAAACBSggAICCAAAAgCIACDSCAAAAAAgAAAICAEAAAgIFBIAAQAAUAAEgAAIkAOIyKCAAAAAAAAAAAAAAAAAAAAAAAAAAAAAAA==

> <PUBCHEM_IUPAC_OPENEYE_NAME>
(9Z,11E)-13-hydroxyoctadeca-9,11-dienoic acid

> <PUBCHEM_IUPAC_CAS_NAME>
(9Z,11E)-13-hydroxyoctadeca-9,11-dienoic acid

> <PUBCHEM_IUPAC_NAME_MARKUP>
(9<I>Z</I>,11<I>E</I>)-13-hydroxyoctadeca-9,11-dienoic acid

> <PUBCHEM_IUPAC_NAME>
(9Z,11E)-13-hydroxyoctadeca-9,11-dienoic acid

> <PUBCHEM_IUPAC_SYSTEMATIC_NAME>
(9Z,11E)-13-oxidanyloctadeca-9,11-dienoic acid

> <PUBCHEM_IUPAC_TRADITIONAL_NAME>
(9Z,11E)-13-hydroxyoctadeca-9,11-dienoic acid

> <PUBCHEM_IUPAC_INCHI>
InChI=1S/C18H32O3/c1-2-3-11-14-17(19)15-12-9-7-5-4-6-8-10-13-16-18(20)21/h7,9,12,15,17,19H,2-6,8,10-11,13-14,16H2,1H3,(H,20,21)/b9-7-,15-12+

> <PUBCHEM_IUPAC_INCHIKEY>
HNICUWMFWZBIFP-BSZOFBHHSA-N

> <PUBCHEM_XLOGP3_AA>
5.3

> <PUBCHEM_EXACT_MASS>
296.23514488

> <PUBCHEM_MOLECULAR_FORMULA>
C18H32O3

> <PUBCHEM_MOLECULAR_WEIGHT>
296.4

> <PUBCHEM_OPENEYE_CAN_SMILES>
CCCCCC(C=CC=CCCCCCCCC(=O)O)O

> <PUBCHEM_OPENEYE_ISO_SMILES>
CCCCCC(/C=C/C=C\CCCCCCCC(=O)O)O

> <PUBCHEM_CACTVS_TPSA>
57.5

> <PUBCHEM_MONOISOTOPIC_WEIGHT>
296.23514488

> <PUBCHEM_TOTAL_CHARGE>
0

> <PUBCHEM_HEAVY_ATOM_COUNT>
21

> <PUBCHEM_ATOM_DEF_STEREO_COUNT>
0

> <PUBCHEM_ATOM_UDEF_STEREO_COUNT>
1

> <PUBCHEM_BOND_DEF_STEREO_COUNT>
2

> <PUBCHEM_BOND_UDEF_STEREO_COUNT>
0

> <PUBCHEM_ISOTOPIC_ATOM_COUNT>
0

> <PUBCHEM_COMPONENT_COUNT>
1

> <PUBCHEM_CACTVS_TAUTO_COUNT>
-1

> <PUBCHEM_COORDINATE_TYPE>
1
5
255

> <PUBCHEM_BONDANNOTATIONS>
13  1  3

$$$$
5282948
  SciTegic09112316442D

 53 52  0  0  1  0            999 V2000
    6.3301   -0.9050    0.0000 O   0  0
   17.5885    0.5950    0.0000 O   0  0
   16.7224   -0.9050    0.0000 O   0  0
   13.2583    0.0950    0.0000 C   0  0
   12.3923    0.5950    0.0000 C   0  0
   14.1244    0.5950    0.0000 C   0  0
   11.5263    0.0950    0.0000 C   0  0
   14.9904    0.0950    0.0000 C   0  0
    4.5981    0.0950    0.0000 C   0  0
    5.4641    0.5950    0.0000 C   0  0
    3.7320    0.5950    0.0000 C   0  0
   10.6603    0.5950    0.0000 C   0  0
    6.3301    0.0950    0.0000 C   0  0
    2.8660    0.0950    0.0000 C   0  0
   15.8564    0.5950    0.0000 C   0  0
    9.7942    0.0950    0.0000 C   0  0
    7.1962    0.5950    0.0000 C   0  0
    2.0000    0.5950    0.0000 C   0  0
    8.9282    0.5950    0.0000 C   0  0
    8.0622    0.0950    0.0000 C   0  0
   16.7224    0.0950    0.0000 C   0  0
   12.8598   -0.3799    0.0000 H   0  0
   13.6569   -0.3799    0.0000 H   0  0
   12.7908    1.0700    0.0000 H   0  0
   11.9938    1.0700    0.0000 H   0  0
   14.5229    1.0700    0.0000 H   0  0
   13.7258    1.0700    0.0000 H   0  0
   11.1278   -0.3799    0.0000 H   0  0
   11.9248   -0.3799    0.0000 H   0  0
   14.5919   -0.3799    0.0000 H   0  0
   15.3889   -0.3799    0.0000 H   0  0
    4.1996   -0.3799    0.0000 H   0  0
    4.9966   -0.3799    0.0000 H   0  0
    5.8626    1.0700    0.0000 H   0  0
    5.0656    1.0700    0.0000 H   0  0
    4.1306    1.0700    0.0000 H   0  0
    3.3335    1.0700    0.0000 H   0  0
   11.0588    1.0700    0.0000 H   0  0
   10.2617    1.0700    0.0000 H   0  0
    7.0662   -0.3300    0.0000 H   0  0
    2.4675   -0.3799    0.0000 H   0  0
    3.2646   -0.3799    0.0000 H   0  0
   16.2549    1.0700    0.0000 H   0  0
   15.4579    1.0700    0.0000 H   0  0
    9.7942   -0.5250    0.0000 H   0  0
    7.1962    1.2150    0.0000 H   0  0
    2.3100    1.1319    0.0000 H   0  0
    1.4631    0.9050    0.0000 H   0  0
    1.6900    0.0581    0.0000 H   0  0
    8.9282    1.2150    0.0000 H   0  0
    8.0622   -0.5250    0.0000 H   0  0
    5.7932   -1.2150    0.0000 H   0  0
   18.1254    0.2850    0.0000 H   0  0
  1 13  1  0
  1 52  1  0
  2 21  1  0
  2 53  1  0
  3 21  2  0
  4  5  1  0
  4  6  1  0
  4 22  1  0
  4 23  1  0
  5  7  1  0
  5 24  1  0
  5 25  1  0
  6  8  1  0
  6 26  1  0
  6 27  1  0
  7 12  1  0
  7 28  1  0
  7 29  1  0
  8 15  1  0
  8 30  1  0
  8 31  1  0
  9 10  1  0
  9 11  1  0
  9 32  1  0
  9 33  1  0
 10 13  1  0
 10 34  1  0
 10 35  1  0
 11 14  1  0
 11 36  1  0
 11 37  1  0
 12 16  1  0
 12 38  1  0
 12 39  1  0
 13 17  1  0
 13 40  1  0
 14 18  1  0
 14 41  1  0
 14 42  1  0
 15 21  1  0
 15 43  1  0
 15 44  1  0
 16 19  2  0
 16 45  1  0
 17 20  2  0
 17 46  1  0
 18 47  1  0
 18 48  1  0
 18 49  1  0
 19 20  1  0
 19 50  1  0
 20 51  1  0
M  END
> <Name>
5282948

> <OBJECTID>
9223373080535171086

> <PUBCHEM_COMPOUND_CID>
5282948

> <PUBCHEM_COMPOUND_CANONICALIZED>
1

> <PUBCHEM_CACTVS_COMPLEXITY>
295

> <PUBCHEM_CACTVS_HBOND_ACCEPTOR>
3

> <PUBCHEM_CACTVS_HBOND_DONOR>
2

> <PUBCHEM_CACTVS_ROTATABLE_BOND>
14

> <PUBCHEM_CACTVS_SUBSKEYS>
AAADcfB4MAAAAAAAAAAAAAAAAAAAAAAAAAAAAAAAAAAAAAAAAAAAGgAACAAACBSggAICCAAAAgCIACDSCAAAAAAgAAAICAEAAAgIFBIAAQAAUAAEgAAIkAOIyKCAAAAAAAAAAAAAAAAAAAAAAAAAAAAAAA==

> <PUBCHEM_IUPAC_OPENEYE_NAME>
(9E,11E)-13-hydroxyoctadeca-9,11-dienoic acid

> <PUBCHEM_IUPAC_CAS_NAME>
(9E,11E)-13-hydroxyoctadeca-9,11-dienoic acid

> <PUBCHEM_IUPAC_NAME_MARKUP>
(9<I>E</I>,11<I>E</I>)-13-hydroxyoctadeca-9,11-dienoic acid

> <PUBCHEM_IUPAC_NAME>
(9E,11E)-13-hydroxyoctadeca-9,11-dienoic acid

> <PUBCHEM_IUPAC_SYSTEMATIC_NAME>
(9E,11E)-13-oxidanyloctadeca-9,11-dienoic acid

> <PUBCHEM_IUPAC_TRADITIONAL_NAME>
(9E,11E)-13-hydroxyoctadeca-9,11-dienoic acid

> <PUBCHEM_IUPAC_INCHI>
InChI=1S/C18H32O3/c1-2-3-11-14-17(19)15-12-9-7-5-4-6-8-10-13-16-18(20)21/h7,9,12,15,17,19H,2-6,8,10-11,13-14,16H2,1H3,(H,20,21)/b9-7+,15-12+

> <PUBCHEM_IUPAC_INCHIKEY>
HNICUWMFWZBIFP-KDFHGORWSA-N

> <PUBCHEM_XLOGP3_AA>
5.3

> <PUBCHEM_EXACT_MASS>
296.23514488

> <PUBCHEM_MOLECULAR_FORMULA>
C18H32O3

> <PUBCHEM_MOLECULAR_WEIGHT>
296.4

> <PUBCHEM_OPENEYE_CAN_SMILES>
CCCCCC(C=CC=CCCCCCCCC(=O)O)O

> <PUBCHEM_OPENEYE_ISO_SMILES>
CCCCCC(/C=C/C=C/CCCCCCCC(=O)O)O

> <PUBCHEM_CACTVS_TPSA>
57.5

> <PUBCHEM_MONOISOTOPIC_WEIGHT>
296.23514488

> <PUBCHEM_TOTAL_CHARGE>
0

> <PUBCHEM_HEAVY_ATOM_COUNT>
21

> <PUBCHEM_ATOM_DEF_STEREO_COUNT>
0

> <PUBCHEM_ATOM_UDEF_STEREO_COUNT>
1

> <PUBCHEM_BOND_DEF_STEREO_COUNT>
2

> <PUBCHEM_BOND_UDEF_STEREO_COUNT>
0

> <PUBCHEM_ISOTOPIC_ATOM_COUNT>
0

> <PUBCHEM_COMPONENT_COUNT>
1

> <PUBCHEM_CACTVS_TAUTO_COUNT>
1

> <PUBCHEM_COORDINATE_TYPE>
1
5
255

> <PUBCHEM_BONDANNOTATIONS>
13  40  3

$$$$
5284359
  SciTegic09112316442D

  3  0  0  0  0  0            999 V2000
    2.8660   -0.2500    0.0000 Ca  0  2
    3.7320    0.2500    0.0000 Cl  0  5
    2.0000    0.2500    0.0000 Cl  0  5
M  CHG  3   1   2   2  -1   3  -1
M  END
> <Name>
5284359

> <OBJECTID>
9223373084830138382

> <PUBCHEM_COMPOUND_CID>
5284359

> <PUBCHEM_COMPOUND_CANONICALIZED>
1

> <PUBCHEM_CACTVS_COMPLEXITY>
0

> <PUBCHEM_CACTVS_HBOND_ACCEPTOR>
2

> <PUBCHEM_CACTVS_HBOND_DONOR>
0

> <PUBCHEM_CACTVS_ROTATABLE_BOND>
0

> <PUBCHEM_CACTVS_SUBSKEYS>
AAADcQAAAAAGAAgAAAAAAAAAAAAAAAAAAAAAAAAAAAAAAAAAAAAAAAAAAAAAAAAAAAAAAAAAAAAAAAAAAAAAAAAAAAAAAAAAAAAAAAAAAAAAAAAAAAAAAAAAAAAAAAAAAAAAAAAAAAAAAAAAAAAAAAAAAA==

> <PUBCHEM_IUPAC_OPENEYE_NAME>
calcium;dichloride

> <PUBCHEM_IUPAC_CAS_NAME>
calcium;dichloride

> <PUBCHEM_IUPAC_NAME_MARKUP>
calcium;dichloride

> <PUBCHEM_IUPAC_NAME>
calcium;dichloride

> <PUBCHEM_IUPAC_SYSTEMATIC_NAME>
calcium;dichloride

> <PUBCHEM_IUPAC_TRADITIONAL_NAME>
calcium;dichloride

> <PUBCHEM_IUPAC_INCHI>
InChI=1S/Ca.2ClH/h;2*1H/q+2;;/p-2

> <PUBCHEM_IUPAC_INCHIKEY>
UXVMQQNJUSDDNG-UHFFFAOYSA-L

> <PUBCHEM_EXACT_MASS>
109.9002962

> <PUBCHEM_MOLECULAR_FORMULA>
CaCl2

> <PUBCHEM_MOLECULAR_WEIGHT>
110.98

> <PUBCHEM_OPENEYE_CAN_SMILES>
[Cl-].[Cl-].[Ca+2]

> <PUBCHEM_OPENEYE_ISO_SMILES>
[Cl-].[Cl-].[Ca+2]

> <PUBCHEM_CACTVS_TPSA>
0

> <PUBCHEM_MONOISOTOPIC_WEIGHT>
109.9002962

> <PUBCHEM_TOTAL_CHARGE>
0

> <PUBCHEM_HEAVY_ATOM_COUNT>
3

> <PUBCHEM_ATOM_DEF_STEREO_COUNT>
0

> <PUBCHEM_ATOM_UDEF_STEREO_COUNT>
0

> <PUBCHEM_BOND_DEF_STEREO_COUNT>
0

> <PUBCHEM_BOND_UDEF_STEREO_COUNT>
0

> <PUBCHEM_ISOTOPIC_ATOM_COUNT>
0

> <PUBCHEM_COMPONENT_COUNT>
3

> <PUBCHEM_CACTVS_TAUTO_COUNT>
1

> <PUBCHEM_COORDINATE_TYPE>
1
5
255

$$$$
5317025
  SciTegic09112316442D

 74 78  0  0  1  0            999 V2000
    6.8671   -1.8743    0.0000 O   0  0
    4.2690   -4.3743    0.0000 O   0  0
    6.0010   -4.3743    0.0000 O   0  0
    7.7331   -4.3743    0.0000 O   0  0
    9.4651   -3.3743    0.0000 O   0  0
    7.7331   -0.3743    0.0000 O   0  0
    9.4651   -1.3743    0.0000 O   0  0
    6.0010   -6.3743    0.0000 O   0  0
    4.2690   -7.3743    0.0000 O   0  0
    2.5369   -6.3743    0.0000 O   0  0
    5.9589    2.6777    0.0000 O   0  0
    4.1934   -0.3470    0.0000 O   0  0
    3.3550    1.1877    0.0000 O   0  0
    5.1102    7.1810    0.0000 O   0  0
    6.8671   -2.8743    0.0000 C   0  0  1  0  0  0
    7.7331   -3.3743    0.0000 C   0  0  2  0  0  0
    8.5991   -2.8743    0.0000 C   0  0  1  0  0  0
    8.5991   -1.8743    0.0000 C   0  0  2  0  0  0
    5.1350   -5.8743    0.0000 C   0  0  1  0  0  0
    5.1350   -4.8743    0.0000 C   0  0  1  0  0  0
    4.2690   -6.3743    0.0000 C   0  0  1  0  0  0
    3.4030   -5.8743    0.0000 C   0  0  2  0  0  0
    7.7331   -1.3743    0.0000 C   0  0  1  0  0  0
    3.4030   -4.8743    0.0000 C   0  0  2  0  0  0
    6.0010   -3.3743    0.0000 C   0  0
    2.5369   -4.3743    0.0000 C   0  0
    6.8671    0.1257    0.0000 C   0  0
    6.8630    1.1673    0.0000 C   0  0
    5.9630   -0.3916    0.0000 C   0  0
    5.9550    1.6777    0.0000 C   0  0
    5.0670    0.1396    0.0000 C   0  0
    5.0871    1.1810    0.0000 C   0  0
    4.2230    1.6844    0.0000 C   0  0
    5.0948    3.1810    0.0000 C   0  0
    4.2268    2.6843    0.0000 C   0  0
    5.0986    4.1810    0.0000 C   0  0
    4.2345    4.6843    0.0000 C   0  0
    5.9666    4.6776    0.0000 C   0  0
    4.2384    5.6843    0.0000 C   0  0
    5.9704    5.6776    0.0000 C   0  0
    5.1063    6.1810    0.0000 C   0  0
    4.2461    7.6843    0.0000 C   0  0
    6.3301   -2.5643    0.0000 H   0  0
    8.2700   -3.6843    0.0000 H   0  0
    9.1360   -2.5643    0.0000 H   0  0
    8.5991   -1.2543    0.0000 H   0  0
    5.1350   -6.4943    0.0000 H   0  0
    5.1350   -4.2543    0.0000 H   0  0
    3.7320   -6.6843    0.0000 H   0  0
    3.4030   -6.4943    0.0000 H   0  0
    7.1962   -1.0643    0.0000 H   0  0
    3.4030   -4.2543    0.0000 H   0  0
    5.7890   -2.7917    0.0000 H   0  0
    5.3905   -3.4820    0.0000 H   0  0
    2.8469   -3.8374    0.0000 H   0  0
    2.0000   -4.0643    0.0000 H   0  0
    2.2269   -4.9112    0.0000 H   0  0
    8.2700   -4.6843    0.0000 H   0  0
   10.0021   -3.0643    0.0000 H   0  0
    9.4651   -0.7543    0.0000 H   0  0
    6.5380   -6.0643    0.0000 H   0  0
    3.7320   -7.6843    0.0000 H   0  0
    2.0000   -6.0643    0.0000 H   0  0
    7.3976    1.4814    0.0000 H   0  0
    5.9582   -1.0116    0.0000 H   0  0
    3.6911    2.9964    0.0000 H   0  0
    4.1838   -0.9669    0.0000 H   0  0
    3.6964    4.3764    0.0000 H   0  0
    6.5023    4.3656    0.0000 H   0  0
    3.7026    5.9964    0.0000 H   0  0
    6.5085    5.9856    0.0000 H   0  0
    4.5582    8.2200    0.0000 H   0  0
    3.7104    7.9964    0.0000 H   0  0
    3.9340    7.1486    0.0000 H   0  0
  1 15  1  0
  1 23  1  0
  2 20  1  0
  2 24  1  0
 20  3  1  1
  3 25  1  0
 16  4  1  6
  4 58  1  0
 17  5  1  1
  5 59  1  0
 23  6  1  1
  6 27  1  0
 18  7  1  6
  7 60  1  0
 19  8  1  6
  8 61  1  0
 21  9  1  6
  9 62  1  0
 22 10  1  1
 10 63  1  0
 11 30  1  0
 11 34  1  0
 12 31  1  0
 12 67  1  0
 13 33  2  0
 14 41  1  0
 14 42  1  0
 15 16  1  0
 15 25  1  1
 15 43  1  0
 16 17  1  0
 16 44  1  0
 17 18  1  0
 17 45  1  0
 18 23  1  0
 18 46  1  0
 19 20  1  0
 19 21  1  0
 19 47  1  0
 20 48  1  0
 21 22  1  0
 21 49  1  0
 22 24  1  0
 22 50  1  0
 23 51  1  0
 24 26  1  6
 24 52  1  0
 25 53  1  0
 25 54  1  0
 26 55  1  0
 26 56  1  0
 26 57  1  0
 27 28  1  0
 27 29  2  0
 28 30  2  0
 28 64  1  0
 29 31  1  0
 29 65  1  0
 30 32  1  0
 31 32  2  0
 32 33  1  0
 33 35  1  0
 34 35  2  0
 34 36  1  0
 35 66  1  0
 36 37  2  0
 36 38  1  0
 37 39  1  0
 37 68  1  0
 38 40  2  0
 38 69  1  0
 39 41  2  0
 39 70  1  0
 40 41  1  0
 40 71  1  0
 42 72  1  0
 42 73  1  0
 42 74  1  0
M  END
> <Name>
5317025

> <OBJECTID>
9223373089125105678

> <PUBCHEM_COMPOUND_CID>
5317025

> <PUBCHEM_COMPOUND_CANONICALIZED>
1

> <PUBCHEM_CACTVS_COMPLEXITY>
955

> <PUBCHEM_CACTVS_HBOND_ACCEPTOR>
14

> <PUBCHEM_CACTVS_HBOND_DONOR>
7

> <PUBCHEM_CACTVS_ROTATABLE_BOND>
7

> <PUBCHEM_CACTVS_SUBSKEYS>
AAADcfB4PAAAAAAAAAAAAAAAAAAAAAAAAAA0aIECAAAAAACBQAAAGgAACAAADBSwmAMyDoAABgCIAqBSAAACCAAkIAAIiAEGCMgdNzaGNRqieWCl4BUPuQfI7KzOIAAACAAIAABAAAAQABAAAAAAAAAAAA==

> <PUBCHEM_IUPAC_OPENEYE_NAME>
5-hydroxy-2-(4-methoxyphenyl)-7-[(2S,3R,4S,5S,6R)-3,4,5-trihydroxy-6-[[(2R,3R,4R,5R,6S)-3,4,5-trihydroxy-6-methyl-tetrahydropyran-2-yl]oxymethyl]tetrahydropyran-2-yl]oxy-chromen-4-one

> <PUBCHEM_IUPAC_CAS_NAME>
5-hydroxy-2-(4-methoxyphenyl)-7-[[(2S,3R,4S,5S,6R)-3,4,5-trihydroxy-6-[[(2R,3R,4R,5R,6S)-3,4,5-trihydroxy-6-methyl-2-oxanyl]oxymethyl]-2-oxanyl]oxy]-1-benzopyran-4-one

> <PUBCHEM_IUPAC_NAME_MARKUP>
5-hydroxy-2-(4-methoxyphenyl)-7-[(2<I>S</I>,3<I>R</I>,4<I>S</I>,5<I>S</I>,6<I>R</I>)-3,4,5-trihydroxy-6-[[(2<I>R</I>,3<I>R</I>,4<I>R</I>,5<I>R</I>,6<I>S</I>)-3,4,5-trihydroxy-6-methyloxan-2-yl]oxymethyl]oxan-2-yl]oxychromen-4-one

> <PUBCHEM_IUPAC_NAME>
5-hydroxy-2-(4-methoxyphenyl)-7-[(2S,3R,4S,5S,6R)-3,4,5-trihydroxy-6-[[(2R,3R,4R,5R,6S)-3,4,5-trihydroxy-6-methyloxan-2-yl]oxymethyl]oxan-2-yl]oxychromen-4-one

> <PUBCHEM_IUPAC_SYSTEMATIC_NAME>
2-(4-methoxyphenyl)-7-[(2S,3R,4S,5S,6R)-6-[[(2R,3R,4R,5R,6S)-6-methyl-3,4,5-tris(oxidanyl)oxan-2-yl]oxymethyl]-3,4,5-tris(oxidanyl)oxan-2-yl]oxy-5-oxidanyl-chromen-4-one

> <PUBCHEM_IUPAC_TRADITIONAL_NAME>
5-hydroxy-2-(4-methoxyphenyl)-7-[(2S,3R,4S,5S,6R)-3,4,5-trihydroxy-6-[[(2R,3R,4R,5R,6S)-3,4,5-trihydroxy-6-methyl-tetrahydropyran-2-yl]oxymethyl]tetrahydropyran-2-yl]oxy-chromone

> <PUBCHEM_IUPAC_INCHI>
InChI=1S/C28H32O14/c1-11-21(31)23(33)25(35)27(39-11)38-10-19-22(32)24(34)26(36)28(42-19)40-14-7-15(29)20-16(30)9-17(41-18(20)8-14)12-3-5-13(37-2)6-4-12/h3-9,11,19,21-29,31-36H,10H2,1-2H3/t11-,19+,21-,22+,23+,24-,25+,26+,27+,28+/m0/s1

> <PUBCHEM_IUPAC_INCHIKEY>
YFVGIJBUXMQFOF-PJOVQGMDSA-N

> <PUBCHEM_XLOGP3_AA>
-0.5

> <PUBCHEM_EXACT_MASS>
592.17920569

> <PUBCHEM_MOLECULAR_FORMULA>
C28H32O14

> <PUBCHEM_MOLECULAR_WEIGHT>
592.5

> <PUBCHEM_OPENEYE_CAN_SMILES>
CC1C(C(C(C(O1)OCC2C(C(C(C(O2)OC3=CC(=C4C(=C3)OC(=CC4=O)C5=CC=C(C=C5)OC)O)O)O)O)O)O)O

> <PUBCHEM_OPENEYE_ISO_SMILES>
C[C@H]1[C@@H]([C@H]([C@H]([C@@H](O1)OC[C@@H]2[C@H]([C@@H]([C@H]([C@@H](O2)OC3=CC(=C4C(=C3)OC(=CC4=O)C5=CC=C(C=C5)OC)O)O)O)O)O)O)O

> <PUBCHEM_CACTVS_TPSA>
214

> <PUBCHEM_MONOISOTOPIC_WEIGHT>
592.17920569

> <PUBCHEM_TOTAL_CHARGE>
0

> <PUBCHEM_HEAVY_ATOM_COUNT>
42

> <PUBCHEM_ATOM_DEF_STEREO_COUNT>
10

> <PUBCHEM_ATOM_UDEF_STEREO_COUNT>
0

> <PUBCHEM_BOND_DEF_STEREO_COUNT>
0

> <PUBCHEM_BOND_UDEF_STEREO_COUNT>
0

> <PUBCHEM_ISOTOPIC_ATOM_COUNT>
0

> <PUBCHEM_COMPONENT_COUNT>
1

> <PUBCHEM_CACTVS_TAUTO_COUNT>
5

> <PUBCHEM_COORDINATE_TYPE>
1
5
255

> <PUBCHEM_BONDANNOTATIONS>
22  10  5
11  30  8
11  34  8
15  25  5
24  26  6
27  28  8
27  29  8
28  30  8
29  31  8
20  3  5
30  32  8
31  32  8
32  33  8
33  35  8
34  35  8
36  37  8
36  38  8
37  39  8
38  40  8
39  41  8
16  4  6
40  41  8
17  5  5
23  6  5
18  7  6
19  8  6
21  9  6

$$$$
5481663
  SciTegic09112316442D

 76 80  0  0  1  0            999 V2000
    6.9343   -0.3450    0.0000 O   0  0
    6.0682   -2.8450    0.0000 O   0  0
    4.3362   -2.8450    0.0000 O   0  0
    7.8003   -2.8450    0.0000 O   0  0
    9.5323   -1.8450    0.0000 O   0  0
    7.8003    1.1550    0.0000 O   0  0
    9.5323    0.1550    0.0000 O   0  0
    6.0682   -4.8450    0.0000 O   0  0
    4.3362   -5.8450    0.0000 O   0  0
    2.6042   -4.8450    0.0000 O   0  0
    6.0682    3.1550    0.0000 O   0  0
    6.0682    0.1550    0.0000 O   0  0
    4.3198    0.1204    0.0000 O   0  0
    2.5381    3.1792    0.0000 O   0  0
    8.6663    5.6550    0.0000 O   0  0
   10.3984    4.6550    0.0000 O   0  0
    6.9343   -1.3450    0.0000 C   0  0  1  0  0  0
    7.8003   -1.8450    0.0000 C   0  0  2  0  0  0
    8.6663   -1.3450    0.0000 C   0  0  1  0  0  0
    8.6663   -0.3450    0.0000 C   0  0  2  0  0  0
    5.2022   -4.3450    0.0000 C   0  0  1  0  0  0
    5.2022   -3.3450    0.0000 C   0  0  2  0  0  0
    4.3362   -4.8450    0.0000 C   0  0  1  0  0  0
    3.4702   -4.3450    0.0000 C   0  0  2  0  0  0
    7.8003    0.1550    0.0000 C   0  0  1  0  0  0
    6.0682   -1.8450    0.0000 C   0  0
    3.4702   -3.3450    0.0000 C   0  0  2  0  0  0
    2.6042   -2.8450    0.0000 C   0  0
    6.9343    1.6550    0.0000 C   0  0
    6.9343    2.6550    0.0000 C   0  0
    6.0682    1.1550    0.0000 C   0  0
    5.2022    1.6550    0.0000 C   0  0
    7.8003    3.1550    0.0000 C   0  0
    5.2022    2.6550    0.0000 C   0  0
    4.3083    1.1203    0.0000 C   0  0
    4.3083    3.1897    0.0000 C   0  0
    7.8003    4.1550    0.0000 C   0  0
    8.6663    2.6550    0.0000 C   0  0
    3.4022    1.6342    0.0000 C   0  0
    3.4022    2.6758    0.0000 C   0  0
    8.6663    4.6550    0.0000 C   0  0
    9.5323    3.1550    0.0000 C   0  0
    9.5323    4.1550    0.0000 C   0  0
    7.8003    6.1550    0.0000 C   0  0
    6.3973   -1.0350    0.0000 H   0  0
    8.3372   -2.1550    0.0000 H   0  0
    9.2033   -1.0350    0.0000 H   0  0
    9.2033   -0.6550    0.0000 H   0  0
    5.7392   -4.0350    0.0000 H   0  0
    5.2022   -2.7250    0.0000 H   0  0
    3.7993   -5.1550    0.0000 H   0  0
    2.9332   -4.0350    0.0000 H   0  0
    8.3372    0.4650    0.0000 H   0  0
    5.8562   -1.2624    0.0000 H   0  0
    5.4577   -1.9527    0.0000 H   0  0
    3.4702   -2.7250    0.0000 H   0  0
    2.9141   -2.3081    0.0000 H   0  0
    2.0672   -2.5350    0.0000 H   0  0
    2.2942   -3.3819    0.0000 H   0  0
    8.3372   -3.1550    0.0000 H   0  0
   10.0693   -1.5350    0.0000 H   0  0
    9.5323    0.7750    0.0000 H   0  0
    6.6052   -4.5350    0.0000 H   0  0
    3.7993   -6.1550    0.0000 H   0  0
    2.0672   -4.5350    0.0000 H   0  0
    4.3154    3.8096    0.0000 H   0  0
    7.2634    4.4650    0.0000 H   0  0
    8.6663    2.0350    0.0000 H   0  0
    2.8665    1.3221    0.0000 H   0  0
   10.0693    2.8450    0.0000 H   0  0
    3.7865   -0.1958    0.0000 H   0  0
    2.0000    2.8712    0.0000 H   0  0
   10.9353    4.3450    0.0000 H   0  0
    8.1103    6.6919    0.0000 H   0  0
    7.2634    6.4650    0.0000 H   0  0
    7.4903    5.6181    0.0000 H   0  0
  1 17  1  0
  1 25  1  0
 22  2  1  1
  2 26  1  0
  3 22  1  0
  3 27  1  0
 18  4  1  6
  4 60  1  0
 19  5  1  1
  5 61  1  0
 25  6  1  1
  6 29  1  0
 20  7  1  6
  7 62  1  0
 21  8  1  6
  8 63  1  0
 23  9  1  6
  9 64  1  0
 24 10  1  1
 10 65  1  0
 11 30  1  0
 11 34  1  0
 12 31  2  0
 13 35  1  0
 13 71  1  0
 14 40  1  0
 14 72  1  0
 15 41  1  0
 15 44  1  0
 16 43  1  0
 16 73  1  0
 17 18  1  0
 17 26  1  1
 17 45  1  0
 18 19  1  0
 18 46  1  0
 19 20  1  0
 19 47  1  0
 20 25  1  0
 20 48  1  0
 21 22  1  0
 21 23  1  0
 21 49  1  0
 22 50  1  0
 23 24  1  0
 23 51  1  0
 24 27  1  0
 24 52  1  0
 25 53  1  0
 26 54  1  0
 26 55  1  0
 27 28  1  6
 27 56  1  0
 28 57  1  0
 28 58  1  0
 28 59  1  0
 29 30  2  0
 29 31  1  0
 30 33  1  0
 31 32  1  0
 32 34  1  0
 32 35  2  0
 33 37  2  0
 33 38  1  0
 34 36  2  0
 35 39  1  0
 36 40  1  0
 36 66  1  0
 37 41  1  0
 37 67  1  0
 38 42  2  0
 38 68  1  0
 39 40  2  0
 39 69  1  0
 41 43  2  0
 42 43  1  0
 42 70  1  0
 44 74  1  0
 44 75  1  0
 44 76  1  0
M  END
> <Name>
5481663

> <OBJECTID>
9223373093420072974

> <PUBCHEM_COMPOUND_CID>
5481663

> <PUBCHEM_COMPOUND_CANONICALIZED>
1

> <PUBCHEM_CACTVS_COMPLEXITY>
1040

> <PUBCHEM_CACTVS_HBOND_ACCEPTOR>
16

> <PUBCHEM_CACTVS_HBOND_DONOR>
9

> <PUBCHEM_CACTVS_ROTATABLE_BOND>
7

> <PUBCHEM_CACTVS_SUBSKEYS>
AAADcfB4PgAAAAAAAAAAAAAAAAAAAAAAAAA0aIECAAAAAACBQAAAGgAACAAADBSwmAMyDoAABgCIAqBSAAICCAAkIAAIiAFGiMgdNzaGNR6ieWOl4BUPuQfI7LzOIAABCAAIQABAAAIQABCAAAAAAAAAAA==

> <PUBCHEM_IUPAC_OPENEYE_NAME>
5,7-dihydroxy-2-(4-hydroxy-3-methoxy-phenyl)-3-[(2S,3R,4S,5S,6R)-3,4,5-trihydroxy-6-[[(2R,3R,4R,5R,6S)-3,4,5-trihydroxy-6-methyl-tetrahydropyran-2-yl]oxymethyl]tetrahydropyran-2-yl]oxy-chromen-4-one

> <PUBCHEM_IUPAC_CAS_NAME>
5,7-dihydroxy-2-(4-hydroxy-3-methoxyphenyl)-3-[[(2S,3R,4S,5S,6R)-3,4,5-trihydroxy-6-[[(2R,3R,4R,5R,6S)-3,4,5-trihydroxy-6-methyl-2-oxanyl]oxymethyl]-2-oxanyl]oxy]-1-benzopyran-4-one

> <PUBCHEM_IUPAC_NAME_MARKUP>
5,7-dihydroxy-2-(4-hydroxy-3-methoxyphenyl)-3-[(2<I>S</I>,3<I>R</I>,4<I>S</I>,5<I>S</I>,6<I>R</I>)-3,4,5-trihydroxy-6-[[(2<I>R</I>,3<I>R</I>,4<I>R</I>,5<I>R</I>,6<I>S</I>)-3,4,5-trihydroxy-6-methyloxan-2-yl]oxymethyl]oxan-2-yl]oxychromen-4-one

> <PUBCHEM_IUPAC_NAME>
5,7-dihydroxy-2-(4-hydroxy-3-methoxyphenyl)-3-[(2S,3R,4S,5S,6R)-3,4,5-trihydroxy-6-[[(2R,3R,4R,5R,6S)-3,4,5-trihydroxy-6-methyloxan-2-yl]oxymethyl]oxan-2-yl]oxychromen-4-one

> <PUBCHEM_IUPAC_SYSTEMATIC_NAME>
2-(3-methoxy-4-oxidanyl-phenyl)-3-[(2S,3R,4S,5S,6R)-6-[[(2R,3R,4R,5R,6S)-6-methyl-3,4,5-tris(oxidanyl)oxan-2-yl]oxymethyl]-3,4,5-tris(oxidanyl)oxan-2-yl]oxy-5,7-bis(oxidanyl)chromen-4-one

> <PUBCHEM_IUPAC_TRADITIONAL_NAME>
5,7-dihydroxy-2-(4-hydroxy-3-methoxy-phenyl)-3-[(2S,3R,4S,5S,6R)-3,4,5-trihydroxy-6-[[(2R,3R,4R,5R,6S)-3,4,5-trihydroxy-6-methyl-tetrahydropyran-2-yl]oxymethyl]tetrahydropyran-2-yl]oxy-chromone

> <PUBCHEM_IUPAC_INCHI>
InChI=1S/C28H32O16/c1-9-18(32)21(35)23(37)27(41-9)40-8-16-19(33)22(36)24(38)28(43-16)44-26-20(34)17-13(31)6-11(29)7-15(17)42-25(26)10-3-4-12(30)14(5-10)39-2/h3-7,9,16,18-19,21-24,27-33,35-38H,8H2,1-2H3/t9-,16+,18-,19+,21+,22-,23+,24+,27+,28-/m0/s1

> <PUBCHEM_IUPAC_INCHIKEY>
UIDGLYUNOUKLBM-GEBJFKNCSA-N

> <PUBCHEM_XLOGP3_AA>
-1

> <PUBCHEM_EXACT_MASS>
624.16903493

> <PUBCHEM_MOLECULAR_FORMULA>
C28H32O16

> <PUBCHEM_MOLECULAR_WEIGHT>
624.5

> <PUBCHEM_OPENEYE_CAN_SMILES>
CC1C(C(C(C(O1)OCC2C(C(C(C(O2)OC3=C(OC4=CC(=CC(=C4C3=O)O)O)C5=CC(=C(C=C5)O)OC)O)O)O)O)O)O

> <PUBCHEM_OPENEYE_ISO_SMILES>
C[C@H]1[C@@H]([C@H]([C@H]([C@@H](O1)OC[C@@H]2[C@H]([C@@H]([C@H]([C@@H](O2)OC3=C(OC4=CC(=CC(=C4C3=O)O)O)C5=CC(=C(C=C5)O)OC)O)O)O)O)O)O

> <PUBCHEM_CACTVS_TPSA>
255

> <PUBCHEM_MONOISOTOPIC_WEIGHT>
624.16903493

> <PUBCHEM_TOTAL_CHARGE>
0

> <PUBCHEM_HEAVY_ATOM_COUNT>
44

> <PUBCHEM_ATOM_DEF_STEREO_COUNT>
10

> <PUBCHEM_ATOM_UDEF_STEREO_COUNT>
0

> <PUBCHEM_BOND_DEF_STEREO_COUNT>
0

> <PUBCHEM_BOND_UDEF_STEREO_COUNT>
0

> <PUBCHEM_ISOTOPIC_ATOM_COUNT>
0

> <PUBCHEM_COMPONENT_COUNT>
1

> <PUBCHEM_CACTVS_TAUTO_COUNT>
69

> <PUBCHEM_COORDINATE_TYPE>
1
5
255

> <PUBCHEM_BONDANNOTATIONS>
24  10  5
11  30  8
11  34  8
17  26  5
22  2  5
27  28  6
29  30  8
29  31  8
31  32  8
32  34  8
32  35  8
33  37  8
33  38  8
34  36  8
35  39  8
36  40  8
37  41  8
38  42  8
39  40  8
18  4  6
41  43  8
42  43  8
19  5  5
25  6  5
20  7  6
21  8  6
23  9  6

$$$$
6419835
  SciTegic09112316442D

 50 53  0  0  1  0            999 V2000
    6.0682   -1.7500    0.0000 O   0  0
    7.8003    0.2500    0.0000 O   0  0
    4.3198    1.2846    0.0000 O   0  0
    2.5381   -1.7742    0.0000 O   0  0
    8.6663   -4.2500    0.0000 O   0  0
    6.9343    1.7500    0.0000 O   0  0
   10.3984   -3.2500    0.0000 O   0  0
   11.2644    1.2500    0.0000 O   0  0
    9.5323    4.2500    0.0000 O   0  0
   11.2644    3.2500    0.0000 O   0  0
    6.9343   -0.2500    0.0000 C   0  0  1  0  0  0
    6.9343   -1.2500    0.0000 C   0  0  2  0  0  0
    6.0682    0.2500    0.0000 C   0  0
    5.2022   -0.2500    0.0000 C   0  0
    5.2022   -1.2500    0.0000 C   0  0
    7.8003   -1.7500    0.0000 C   0  0
    4.3083    0.2847    0.0000 C   0  0
    4.3083   -1.7847    0.0000 C   0  0
    7.8003   -2.7500    0.0000 C   0  0
    8.6663   -1.2500    0.0000 C   0  0
    3.4022   -0.2292    0.0000 C   0  0
    3.4022   -1.2708    0.0000 C   0  0
    7.8003    1.2500    0.0000 C   0  0
    8.6663   -3.2500    0.0000 C   0  0
    9.5323   -1.7500    0.0000 C   0  0
    9.5323   -2.7500    0.0000 C   0  0
    8.6663    1.7500    0.0000 C   0  0
    8.6663    2.7500    0.0000 C   0  0
    9.5323    1.2500    0.0000 C   0  0
   10.3984    1.7500    0.0000 C   0  0
    9.5323    3.2500    0.0000 C   0  0
   10.3984    2.7500    0.0000 C   0  0
    6.9343    0.3700    0.0000 H   0  0
    6.9343   -1.8700    0.0000 H   0  0
    6.4668    0.7249    0.0000 H   0  0
    5.6697    0.7249    0.0000 H   0  0
    4.3154   -2.4046    0.0000 H   0  0
    7.2634   -3.0600    0.0000 H   0  0
    8.6663   -0.6300    0.0000 H   0  0
    2.8665    0.0829    0.0000 H   0  0
   10.0693   -1.4400    0.0000 H   0  0
    3.7865    1.6008    0.0000 H   0  0
    2.0000   -1.4662    0.0000 H   0  0
    8.1294    3.0600    0.0000 H   0  0
    9.5323    0.6300    0.0000 H   0  0
    9.2033   -4.5600    0.0000 H   0  0
   10.9353   -2.9400    0.0000 H   0  0
   11.8013    1.5600    0.0000 H   0  0
    8.9954    4.5600    0.0000 H   0  0
   11.2644    3.8700    0.0000 H   0  0
  1 12  1  0
  1 15  1  0
 11  2  1  1
  2 23  1  0
  3 17  1  0
  3 42  1  0
  4 22  1  0
  4 43  1  0
  5 24  1  0
  5 46  1  0
  6 23  2  0
  7 26  1  0
  7 47  1  0
  8 30  1  0
  8 48  1  0
  9 31  1  0
  9 49  1  0
 10 32  1  0
 10 50  1  0
 11 12  1  0
 11 13  1  0
 11 33  1  0
 12 16  1  6
 12 34  1  0
 13 14  1  0
 13 35  1  0
 13 36  1  0
 14 15  1  0
 14 17  2  0
 15 18  2  0
 16 19  2  0
 16 20  1  0
 17 21  1  0
 18 22  1  0
 18 37  1  0
 19 24  1  0
 19 38  1  0
 20 25  2  0
 20 39  1  0
 21 22  2  0
 21 40  1  0
 23 27  1  0
 24 26  2  0
 25 26  1  0
 25 41  1  0
 27 28  2  0
 27 29  1  0
 28 31  1  0
 28 44  1  0
 29 30  2  0
 29 45  1  0
 30 32  1  0
 31 32  2  0
M  END
> <Name>
6419835

> <OBJECTID>
9223373097715040270

> <PUBCHEM_COMPOUND_CID>
6419835

> <PUBCHEM_COMPOUND_CANONICALIZED>
1

> <PUBCHEM_CACTVS_COMPLEXITY>
649

> <PUBCHEM_CACTVS_HBOND_ACCEPTOR>
10

> <PUBCHEM_CACTVS_HBOND_DONOR>
7

> <PUBCHEM_CACTVS_ROTATABLE_BOND>
4

> <PUBCHEM_CACTVS_SUBSKEYS>
AAADceB4PAAAAAAAAAAAAAAAAAAAAAAAAAA0YMEAAAAAAACRUAAAGgAACAAADBSgmAIwDoAABgCIAiDSCAACCAAkIAAIiAEGiMgNJzKGNRqCeSGlwBULuYfK7PzOIAABCAAIQABAAAIQABCAAAAAAAAAAA==

> <PUBCHEM_IUPAC_OPENEYE_NAME>
[(2S,3R)-2-(3,4-dihydroxyphenyl)-5,7-dihydroxy-chroman-3-yl] 3,4,5-trihydroxybenzoate

> <PUBCHEM_IUPAC_CAS_NAME>
3,4,5-trihydroxybenzoic acid [(2S,3R)-2-(3,4-dihydroxyphenyl)-5,7-dihydroxy-3,4-dihydro-2H-1-benzopyran-3-yl] ester

> <PUBCHEM_IUPAC_NAME_MARKUP>
[(2<I>S</I>,3<I>R</I>)-2-(3,4-dihydroxyphenyl)-5,7-dihydroxy-3,4-dihydro-2<I>H</I>-chromen-3-yl] 3,4,5-trihydroxybenzoate

> <PUBCHEM_IUPAC_NAME>
[(2S,3R)-2-(3,4-dihydroxyphenyl)-5,7-dihydroxy-3,4-dihydro-2H-chromen-3-yl] 3,4,5-trihydroxybenzoate

> <PUBCHEM_IUPAC_SYSTEMATIC_NAME>
[(2S,3R)-2-[3,4-bis(oxidanyl)phenyl]-5,7-bis(oxidanyl)-3,4-dihydro-2H-chromen-3-yl] 3,4,5-tris(oxidanyl)benzoate

> <PUBCHEM_IUPAC_TRADITIONAL_NAME>
3,4,5-trihydroxybenzoic acid [(2S,3R)-2-(3,4-dihydroxyphenyl)-5,7-dihydroxy-chroman-3-yl] ester

> <PUBCHEM_IUPAC_INCHI>
InChI=1S/C22H18O10/c23-11-6-14(25)12-8-19(32-22(30)10-4-16(27)20(29)17(28)5-10)21(31-18(12)7-11)9-1-2-13(24)15(26)3-9/h1-7,19,21,23-29H,8H2/t19-,21+/m1/s1

> <PUBCHEM_IUPAC_INCHIKEY>
LSHVYAFMTMFKBA-CTNGQTDRSA-N

> <PUBCHEM_XLOGP3>
1.5

> <PUBCHEM_EXACT_MASS>
442.08999677

> <PUBCHEM_MOLECULAR_FORMULA>
C22H18O10

> <PUBCHEM_MOLECULAR_WEIGHT>
442.4

> <PUBCHEM_OPENEYE_CAN_SMILES>
C1C(C(OC2=CC(=CC(=C21)O)O)C3=CC(=C(C=C3)O)O)OC(=O)C4=CC(=C(C(=C4)O)O)O

> <PUBCHEM_OPENEYE_ISO_SMILES>
C1[C@H]([C@@H](OC2=CC(=CC(=C21)O)O)C3=CC(=C(C=C3)O)O)OC(=O)C4=CC(=C(C(=C4)O)O)O

> <PUBCHEM_CACTVS_TPSA>
177

> <PUBCHEM_MONOISOTOPIC_WEIGHT>
442.08999677

> <PUBCHEM_TOTAL_CHARGE>
0

> <PUBCHEM_HEAVY_ATOM_COUNT>
32

> <PUBCHEM_ATOM_DEF_STEREO_COUNT>
2

> <PUBCHEM_ATOM_UDEF_STEREO_COUNT>
0

> <PUBCHEM_BOND_DEF_STEREO_COUNT>
0

> <PUBCHEM_BOND_UDEF_STEREO_COUNT>
0

> <PUBCHEM_ISOTOPIC_ATOM_COUNT>
0

> <PUBCHEM_COMPONENT_COUNT>
1

> <PUBCHEM_CACTVS_TAUTO_COUNT>
998

> <PUBCHEM_COORDINATE_TYPE>
1
5
255

> <PUBCHEM_BONDANNOTATIONS>
12  16  6
14  15  8
14  17  8
15  18  8
16  19  8
16  20  8
17  21  8
18  22  8
19  24  8
11  2  5
20  25  8
21  22  8
24  26  8
25  26  8
27  28  8
27  29  8
28  31  8
29  30  8
30  32  8
31  32  8

$$$$
6446027
  SciTegic09112316442D

 51 50  0  0  0  0            999 V2000
   13.2583   -3.9050    0.0000 O   0  0
   14.1244   -2.4050    0.0000 O   0  0
    6.3301    2.0950    0.0000 O   0  0
   11.5263    0.0950    0.0000 C   0  0
   10.6603    0.5950    0.0000 C   0  0
   11.5263   -0.9050    0.0000 C   0  0
   10.6603    1.5950    0.0000 C   0  0
   12.3923   -1.4050    0.0000 C   0  0
    9.7942    2.0950    0.0000 C   0  0
   12.3923   -2.4050    0.0000 C   0  0
    4.5981    3.0950    0.0000 C   0  0
    3.7320    3.5950    0.0000 C   0  0
    5.4641    3.5950    0.0000 C   0  0
    2.8660    3.0950    0.0000 C   0  0
    9.7942    3.0950    0.0000 C   0  0
   13.2583   -2.9050    0.0000 C   0  0
    6.3301    3.0950    0.0000 C   0  0
    2.0000    3.5950    0.0000 C   0  0
    8.9282    3.5950    0.0000 C   0  0
    7.1962    3.5950    0.0000 C   0  0
    8.0622    3.0950    0.0000 C   0  0
   12.1369   -0.0127    0.0000 H   0  0
   11.7383    0.6776    0.0000 H   0  0
   10.0497    0.7027    0.0000 H   0  0
   10.4482    0.0124    0.0000 H   0  0
   10.9157   -0.7973    0.0000 H   0  0
   11.3142   -1.4876    0.0000 H   0  0
   11.2708    1.4873    0.0000 H   0  0
   10.8723    2.1776    0.0000 H   0  0
   13.0029   -1.5127    0.0000 H   0  0
   12.6044   -0.8224    0.0000 H   0  0
    9.1836    2.2027    0.0000 H   0  0
    9.5822    1.5124    0.0000 H   0  0
   11.7817   -2.2973    0.0000 H   0  0
   12.1803   -2.9876    0.0000 H   0  0
    4.1996    2.6200    0.0000 H   0  0
    4.9966    2.6200    0.0000 H   0  0
    4.1306    4.0700    0.0000 H   0  0
    3.3335    4.0700    0.0000 H   0  0
    5.8626    4.0700    0.0000 H   0  0
    5.0656    4.0700    0.0000 H   0  0
    2.4675    2.6200    0.0000 H   0  0
    3.2646    2.6200    0.0000 H   0  0
   10.3312    3.4050    0.0000 H   0  0
    2.3100    4.1319    0.0000 H   0  0
    1.4631    3.9050    0.0000 H   0  0
    1.6900    3.0581    0.0000 H   0  0
    8.9282    4.2150    0.0000 H   0  0
    7.1962    4.2150    0.0000 H   0  0
    8.0622    2.4750    0.0000 H   0  0
   13.7953   -4.2150    0.0000 H   0  0
  1 16  1  0
  1 51  1  0
  2 16  2  0
  3 17  2  0
  4  5  1  0
  4  6  1  0
  4 22  1  0
  4 23  1  0
  5  7  1  0
  5 24  1  0
  5 25  1  0
  6  8  1  0
  6 26  1  0
  6 27  1  0
  7  9  1  0
  7 28  1  0
  7 29  1  0
  8 10  1  0
  8 30  1  0
  8 31  1  0
  9 15  1  0
  9 32  1  0
  9 33  1  0
 10 16  1  0
 10 34  1  0
 10 35  1  0
 11 12  1  0
 11 13  1  0
 11 36  1  0
 11 37  1  0
 12 14  1  0
 12 38  1  0
 12 39  1  0
 13 17  1  0
 13 40  1  0
 13 41  1  0
 14 18  1  0
 14 42  1  0
 14 43  1  0
 15 19  2  0
 15 44  1  0
 17 20  1  0
 18 45  1  0
 18 46  1  0
 18 47  1  0
 19 21  1  0
 19 48  1  0
 20 21  2  0
 20 49  1  0
 21 50  1  0
M  END
> <Name>
6446027

> <OBJECTID>
9223373102010007566

> <PUBCHEM_COMPOUND_CID>
6446027

> <PUBCHEM_COMPOUND_CANONICALIZED>
1

> <PUBCHEM_CACTVS_COMPLEXITY>
329

> <PUBCHEM_CACTVS_HBOND_ACCEPTOR>
3

> <PUBCHEM_CACTVS_HBOND_DONOR>
1

> <PUBCHEM_CACTVS_ROTATABLE_BOND>
14

> <PUBCHEM_CACTVS_SUBSKEYS>
AAADceB4MAAAAAAAAAAAAAAAAAAAAAAAAAAAAAAAAAAAAAAAAAAAGgAACAAACASAgAACCAAAAgCIAKDSCAAAAAAgAAAICAEAAEgIABIAAQAAQAAEgAAIgYOIyKCAAAAAAAAAAAAAAAAAAAAAAAAAAAAAAA==

> <PUBCHEM_IUPAC_OPENEYE_NAME>
(9Z,11E)-13-oxooctadeca-9,11-dienoic acid

> <PUBCHEM_IUPAC_CAS_NAME>
(9Z,11E)-13-oxooctadeca-9,11-dienoic acid

> <PUBCHEM_IUPAC_NAME_MARKUP>
(9<I>Z</I>,11<I>E</I>)-13-oxooctadeca-9,11-dienoic acid

> <PUBCHEM_IUPAC_NAME>
(9Z,11E)-13-oxooctadeca-9,11-dienoic acid

> <PUBCHEM_IUPAC_SYSTEMATIC_NAME>
(9Z,11E)-13-oxidanylideneoctadeca-9,11-dienoic acid

> <PUBCHEM_IUPAC_TRADITIONAL_NAME>
(9Z,11E)-13-ketooctadeca-9,11-dienoic acid

> <PUBCHEM_IUPAC_INCHI>
InChI=1S/C18H30O3/c1-2-3-11-14-17(19)15-12-9-7-5-4-6-8-10-13-16-18(20)21/h7,9,12,15H,2-6,8,10-11,13-14,16H2,1H3,(H,20,21)/b9-7-,15-12+

> <PUBCHEM_IUPAC_INCHIKEY>
JHXAZBBVQSRKJR-BSZOFBHHSA-N

> <PUBCHEM_XLOGP3_AA>
5.2

> <PUBCHEM_EXACT_MASS>
294.21949481

> <PUBCHEM_MOLECULAR_FORMULA>
C18H30O3

> <PUBCHEM_MOLECULAR_WEIGHT>
294.4

> <PUBCHEM_OPENEYE_CAN_SMILES>
CCCCCC(=O)C=CC=CCCCCCCCC(=O)O

> <PUBCHEM_OPENEYE_ISO_SMILES>
CCCCCC(=O)/C=C/C=C\CCCCCCCC(=O)O

> <PUBCHEM_CACTVS_TPSA>
54.4

> <PUBCHEM_MONOISOTOPIC_WEIGHT>
294.21949481

> <PUBCHEM_TOTAL_CHARGE>
0

> <PUBCHEM_HEAVY_ATOM_COUNT>
21

> <PUBCHEM_ATOM_DEF_STEREO_COUNT>
0

> <PUBCHEM_ATOM_UDEF_STEREO_COUNT>
0

> <PUBCHEM_BOND_DEF_STEREO_COUNT>
2

> <PUBCHEM_BOND_UDEF_STEREO_COUNT>
0

> <PUBCHEM_ISOTOPIC_ATOM_COUNT>
0

> <PUBCHEM_COMPONENT_COUNT>
1

> <PUBCHEM_CACTVS_TAUTO_COUNT>
7

> <PUBCHEM_COORDINATE_TYPE>
1
5
255

$$$$
9796304
  SciTegic09112316442D

 55 54  0  0  1  0            999 V2000
   12.3923    1.2500    0.0000 O   0  0
   14.1244    2.2500    0.0000 O   0  0
   13.2583    3.7500    0.0000 O   0  0
    3.7320   -0.7500    0.0000 C   0  0
    9.7942    2.7500    0.0000 C   0  0
    8.9282    2.2500    0.0000 C   0  0
    4.5981   -0.2500    0.0000 C   0  0
    3.7320   -1.7500    0.0000 C   0  0
   10.6603    2.2500    0.0000 C   0  0
    8.0622    2.7500    0.0000 C   0  0
    4.5981    0.7500    0.0000 C   0  0
    2.8660   -2.2500    0.0000 C   0  0
   11.5263    2.7500    0.0000 C   0  0
    7.1962    2.2500    0.0000 C   0  0
    5.4641    1.2500    0.0000 C   0  0
    2.8660   -3.2500    0.0000 C   0  0
    6.3301    2.7500    0.0000 C   0  0
    5.4641    2.2500    0.0000 C   0  0
   12.3923    2.2500    0.0000 C   0  0
    2.0000   -3.7500    0.0000 C   0  0
   13.2583    2.7500    0.0000 C   0  0
    3.5200   -0.1674    0.0000 H   0  0
    3.1215   -0.8577    0.0000 H   0  0
   10.1928    3.2250    0.0000 H   0  0
    9.3957    3.2250    0.0000 H   0  0
    8.5297    1.7750    0.0000 H   0  0
    9.3267    1.7750    0.0000 H   0  0
    4.8101   -0.8326    0.0000 H   0  0
    5.2087   -0.1423    0.0000 H   0  0
    3.9441   -2.3326    0.0000 H   0  0
    4.3426   -1.6423    0.0000 H   0  0
   10.2617    1.7750    0.0000 H   0  0
   11.0588    1.7750    0.0000 H   0  0
    8.4607    3.2250    0.0000 H   0  0
    7.6636    3.2250    0.0000 H   0  0
    4.3860    1.3326    0.0000 H   0  0
    3.9875    0.6423    0.0000 H   0  0
    2.6540   -1.6674    0.0000 H   0  0
    2.2554   -2.3577    0.0000 H   0  0
   11.9248    3.2250    0.0000 H   0  0
   11.1278    3.2250    0.0000 H   0  0
    6.7976    1.7750    0.0000 H   0  0
    7.5947    1.7750    0.0000 H   0  0
    5.6762    0.6674    0.0000 H   0  0
    6.0747    1.3577    0.0000 H   0  0
    3.0781   -3.8326    0.0000 H   0  0
    3.4766   -3.1423    0.0000 H   0  0
   11.6562    1.8250    0.0000 H   0  0
    6.3301    3.3700    0.0000 H   0  0
    4.9272    2.5600    0.0000 H   0  0
    1.6900   -3.2131    0.0000 H   0  0
    1.4631   -4.0600    0.0000 H   0  0
    2.3100   -4.2869    0.0000 H   0  0
   11.8554    0.9400    0.0000 H   0  0
   14.6613    2.5600    0.0000 H   0  0
  1 19  1  0
  1 54  1  0
  2 21  1  0
  2 55  1  0
  3 21  2  0
  4  7  1  0
  4  8  1  0
  4 22  1  0
  4 23  1  0
  5  6  1  0
  5  9  1  0
  5 24  1  0
  5 25  1  0
  6 10  1  0
  6 26  1  0
  6 27  1  0
  7 11  1  0
  7 28  1  0
  7 29  1  0
  8 12  1  0
  8 30  1  0
  8 31  1  0
  9 13  1  0
  9 32  1  0
  9 33  1  0
 10 14  1  0
 10 34  1  0
 10 35  1  0
 11 15  1  0
 11 36  1  0
 11 37  1  0
 12 16  1  0
 12 38  1  0
 12 39  1  0
 13 19  1  0
 13 40  1  0
 13 41  1  0
 14 17  1  0
 14 42  1  0
 14 43  1  0
 15 18  1  0
 15 44  1  0
 15 45  1  0
 16 20  1  0
 16 46  1  0
 16 47  1  0
 17 18  2  0
 17 49  1  0
 18 50  1  0
 19 21  1  0
 19 48  1  0
 20 51  1  0
 20 52  1  0
 20 53  1  0
M  END
> <Name>
9796304

> <OBJECTID>
9223373106304974862

> <PUBCHEM_COMPOUND_CID>
9796304

> <PUBCHEM_COMPOUND_CANONICALIZED>
1

> <PUBCHEM_CACTVS_COMPLEXITY>
261

> <PUBCHEM_CACTVS_HBOND_ACCEPTOR>
3

> <PUBCHEM_CACTVS_HBOND_DONOR>
2

> <PUBCHEM_CACTVS_ROTATABLE_BOND>
15

> <PUBCHEM_CACTVS_SUBSKEYS>
AAADcfB4MAAAAAAAAAAAAAAAAAAAAAAAAAAAAAAAAAAAAAAAAAAAGgAACAAACBSggAICCAAAAgCIACDSCAIAAAAgAAAICAFAAAgBEBIAAQAAQAAEgAAJAAOIyKCAAAAAAAAAAAAAAAAAAAAAAAAAAAAAAA==

> <PUBCHEM_IUPAC_OPENEYE_NAME>
(Z)-2-hydroxyoctadec-9-enoic acid

> <PUBCHEM_IUPAC_CAS_NAME>
(Z)-2-hydroxy-9-octadecenoic acid

> <PUBCHEM_IUPAC_NAME_MARKUP>
(<I>Z</I>)-2-hydroxyoctadec-9-enoic acid

> <PUBCHEM_IUPAC_NAME>
(Z)-2-hydroxyoctadec-9-enoic acid

> <PUBCHEM_IUPAC_SYSTEMATIC_NAME>
(Z)-2-oxidanyloctadec-9-enoic acid

> <PUBCHEM_IUPAC_TRADITIONAL_NAME>
(Z)-2-hydroxyoctadec-9-enoic acid

> <PUBCHEM_IUPAC_INCHI>
InChI=1S/C18H34O3/c1-2-3-4-5-6-7-8-9-10-11-12-13-14-15-16-17(19)18(20)21/h9-10,17,19H,2-8,11-16H2,1H3,(H,20,21)/b10-9-

> <PUBCHEM_IUPAC_INCHIKEY>
JBSOOFITVPOOSY-KTKRTIGZSA-N

> <PUBCHEM_XLOGP3_AA>
6.5

> <PUBCHEM_EXACT_MASS>
298.25079494

> <PUBCHEM_MOLECULAR_FORMULA>
C18H34O3

> <PUBCHEM_MOLECULAR_WEIGHT>
298.5

> <PUBCHEM_OPENEYE_CAN_SMILES>
CCCCCCCCC=CCCCCCCC(C(=O)O)O

> <PUBCHEM_OPENEYE_ISO_SMILES>
CCCCCCCC/C=C\CCCCCCC(C(=O)O)O

> <PUBCHEM_CACTVS_TPSA>
57.5

> <PUBCHEM_MONOISOTOPIC_WEIGHT>
298.25079494

> <PUBCHEM_TOTAL_CHARGE>
0

> <PUBCHEM_HEAVY_ATOM_COUNT>
21

> <PUBCHEM_ATOM_DEF_STEREO_COUNT>
0

> <PUBCHEM_ATOM_UDEF_STEREO_COUNT>
1

> <PUBCHEM_BOND_DEF_STEREO_COUNT>
1

> <PUBCHEM_BOND_UDEF_STEREO_COUNT>
0

> <PUBCHEM_ISOTOPIC_ATOM_COUNT>
0

> <PUBCHEM_COMPONENT_COUNT>
1

> <PUBCHEM_CACTVS_TAUTO_COUNT>
1

> <PUBCHEM_COORDINATE_TYPE>
1
5
255

> <PUBCHEM_BONDANNOTATIONS>
19  48  3

$$$$
11250133
  SciTegic09112316442D

 68 73  0  0  1  0            999 V2000
    6.7942   -2.0968    0.0000 O   0  0
    9.5801    0.6877    0.0000 O   0  0
    5.8505    0.3751    0.0000 O   0  0
   11.3503    2.7465    0.0000 O   0  0
    5.9693    1.3961    0.0000 O   0  0
    7.8201    3.7224    0.0000 O   0  0
    9.9024   -0.1351    0.0000 O   0  0
   10.1030   -3.3268    0.0000 O   0  0
    3.4977   -3.5574    0.0000 O   0  0
    2.2120   -2.0253    0.0000 O   0  0
   12.2066   -1.8051    0.0000 O   0  0
   13.9425   -0.8118    0.0000 O   0  0
    7.4782   -0.2174    0.0000 C   0  0  1  0  0  0
    6.4933   -0.3910    0.0000 C   0  0  2  0  0  0
    7.8201    0.7224    0.0000 C   0  0
    6.1513   -1.3307    0.0000 C   0  0  1  0  0  0
    8.1209   -0.9834    0.0000 C   0  0
    8.6862    1.2224    0.0000 C   0  0
    8.6862    2.2224    0.0000 C   0  0
   10.4862    2.2432    0.0000 C   0  0  2  0  0  0
   10.4862    1.2015    0.0000 C   0  0  1  0  0  0
    9.5801    2.7570    0.0000 C   0  0
    7.7789   -1.9231    0.0000 C   0  0
    6.9541    1.2224    0.0000 C   0  0
    5.1665   -1.5044    0.0000 C   0  0
    7.8201    2.7224    0.0000 C   0  0
    9.1438   -0.7867    0.0000 C   0  0
    6.9541    2.2224    0.0000 C   0  0
   11.3503    0.6982    0.0000 C   0  0
    8.4360   -2.7312    0.0000 C   0  0
    9.8195   -1.5795    0.0000 C   0  0
    4.8245   -2.4441    0.0000 C   0  0
    9.4632   -2.5583    0.0000 C   0  0
    4.5237   -0.7383    0.0000 C   0  0
   11.3464   -0.3018    0.0000 C   0  0
   12.2182    1.1949    0.0000 C   0  0
    3.8397   -2.6177    0.0000 C   0  0
    3.5389   -0.9119    0.0000 C   0  0
    3.1969   -1.8516    0.0000 C   0  0
   12.2105   -0.8051    0.0000 C   0  0
   13.0823    0.6915    0.0000 C   0  0
   13.0784   -0.3085    0.0000 C   0  0
    6.9318    0.4337    0.0000 H   0  0
    5.8827   -0.4987    0.0000 H   0  0
    5.9393   -1.9133    0.0000 H   0  0
   11.0237    1.9342    0.0000 H   0  0
   11.0237    1.5105    0.0000 H   0  0
    9.9737    3.2360    0.0000 H   0  0
    9.1755    3.2268    0.0000 H   0  0
    6.4172    2.5324    0.0000 H   0  0
    5.2399    0.2674    0.0000 H   0  0
    8.2173   -3.3114    0.0000 H   0  0
   10.4296   -1.4694    0.0000 H   0  0
    5.2230   -2.9190    0.0000 H   0  0
    4.7357   -0.1557    0.0000 H   0  0
   11.3479    3.3665    0.0000 H   0  0
   10.8083   -0.6097    0.0000 H   0  0
   12.2206    1.8148    0.0000 H   0  0
    5.7573    1.9787    0.0000 H   0  0
    7.2832    4.0324    0.0000 H   0  0
   10.4874   -0.3404    0.0000 H   0  0
    3.1403   -0.4370    0.0000 H   0  0
   13.6204    0.9995    0.0000 H   0  0
    9.8887   -3.9086    0.0000 H   0  0
    3.8962   -4.0324    0.0000 H   0  0
    2.0000   -2.6079    0.0000 H   0  0
   12.7424   -2.1172    0.0000 H   0  0
   14.4807   -0.5039    0.0000 H   0  0
  1 16  1  0
  1 23  1  0
  2 18  1  0
  2 21  1  0
 14  3  1  6
  3 51  1  0
 20  4  1  6
  4 56  1  0
  5 24  1  0
  5 59  1  0
  6 26  1  0
  6 60  1  0
  7 27  1  0
  7 61  1  0
  8 33  1  0
  8 64  1  0
  9 37  1  0
  9 65  1  0
 10 39  1  0
 10 66  1  0
 11 40  1  0
 11 67  1  0
 12 42  1  0
 12 68  1  0
 13 14  1  0
 13 15  1  0
 13 17  1  0
 13 43  1  6
 14 16  1  0
 14 44  1  0
 15 18  1  0
 15 24  2  0
 16 25  1  6
 16 45  1  0
 17 23  1  0
 17 27  2  0
 18 19  2  0
 19 22  1  0
 19 26  1  0
 20 21  1  0
 20 22  1  0
 20 46  1  0
 21 29  1  1
 21 47  1  0
 22 48  1  0
 22 49  1  0
 23 30  2  0
 24 28  1  0
 25 32  2  0
 25 34  1  0
 26 28  2  0
 27 31  1  0
 28 50  1  0
 29 35  2  0
 29 36  1  0
 30 33  1  0
 30 52  1  0
 31 33  2  0
 31 53  1  0
 32 37  1  0
 32 54  1  0
 34 38  2  0
 34 55  1  0
 35 40  1  0
 35 57  1  0
 36 41  2  0
 36 58  1  0
 37 39  2  0
 38 39  1  0
 38 62  1  0
 40 42  2  0
 41 42  1  0
 41 63  1  0
M  END
> <Name>
11250133

> <OBJECTID>
9223373110599942158

> <PUBCHEM_COMPOUND_CID>
11250133

> <PUBCHEM_COMPOUND_CANONICALIZED>
1

> <PUBCHEM_CACTVS_COMPLEXITY>
925

> <PUBCHEM_CACTVS_HBOND_ACCEPTOR>
12

> <PUBCHEM_CACTVS_HBOND_DONOR>
10

> <PUBCHEM_CACTVS_ROTATABLE_BOND>
3

> <PUBCHEM_CACTVS_SUBSKEYS>
AAADceB4PAAAAAAAAAAAAAAAAAAAAAAAAAA0aMGCAAAAAACRVAAAGgAACAAADRSgmAIwBoAABgCAAiBCAAACCAAgIAAIiAAGiIgNNyKGMRqCeCGlwBULuAfA4PwOoAADCAAIQABAAAYQABCAAAAAAAAAAA==

> <PUBCHEM_IUPAC_OPENEYE_NAME>
(2R,3S)-2-(3,4-dihydroxyphenyl)-8-[(2R,3R,4R)-2-(3,4-dihydroxyphenyl)-3,5,7-trihydroxy-chroman-4-yl]chromane-3,5,7-triol

> <PUBCHEM_IUPAC_CAS_NAME>
(2R,3S)-2-(3,4-dihydroxyphenyl)-8-[(2R,3R,4R)-2-(3,4-dihydroxyphenyl)-3,5,7-trihydroxy-3,4-dihydro-2H-1-benzopyran-4-yl]-3,4-dihydro-2H-1-benzopyran-3,5,7-triol

> <PUBCHEM_IUPAC_NAME_MARKUP>
(2<I>R</I>,3<I>S</I>)-2-(3,4-dihydroxyphenyl)-8-[(2<I>R</I>,3<I>R</I>,4<I>R</I>)-2-(3,4-dihydroxyphenyl)-3,5,7-trihydroxy-3,4-dihydro-2<I>H</I>-chromen-4-yl]-3,4-dihydro-2<I>H</I>-chromene-3,5,7-triol

> <PUBCHEM_IUPAC_NAME>
(2R,3S)-2-(3,4-dihydroxyphenyl)-8-[(2R,3R,4R)-2-(3,4-dihydroxyphenyl)-3,5,7-trihydroxy-3,4-dihydro-2H-chromen-4-yl]-3,4-dihydro-2H-chromene-3,5,7-triol

> <PUBCHEM_IUPAC_SYSTEMATIC_NAME>
(2R,3S)-2-[3,4-bis(oxidanyl)phenyl]-8-[(2R,3R,4R)-2-[3,4-bis(oxidanyl)phenyl]-3,5,7-tris(oxidanyl)-3,4-dihydro-2H-chromen-4-yl]-3,4-dihydro-2H-chromene-3,5,7-triol

> <PUBCHEM_IUPAC_TRADITIONAL_NAME>
(2R,3S)-2-(3,4-dihydroxyphenyl)-8-[(2R,3R,4R)-2-(3,4-dihydroxyphenyl)-3,5,7-trihydroxy-chroman-4-yl]chroman-3,5,7-triol

> <PUBCHEM_IUPAC_INCHI>
InChI=1S/C30H26O12/c31-13-7-20(37)24-23(8-13)41-29(12-2-4-16(33)19(36)6-12)27(40)26(24)25-21(38)10-17(34)14-9-22(39)28(42-30(14)25)11-1-3-15(32)18(35)5-11/h1-8,10,22,26-29,31-40H,9H2/t22-,26+,27+,28+,29+/m0/s1

> <PUBCHEM_IUPAC_INCHIKEY>
XFZJEEAOWLFHDH-UKWJTHFESA-N

> <PUBCHEM_XLOGP3_AA>
2.4

> <PUBCHEM_EXACT_MASS>
578.14242626

> <PUBCHEM_MOLECULAR_FORMULA>
C30H26O12

> <PUBCHEM_MOLECULAR_WEIGHT>
578.5

> <PUBCHEM_OPENEYE_CAN_SMILES>
C1C(C(OC2=C1C(=CC(=C2C3C(C(OC4=CC(=CC(=C34)O)O)C5=CC(=C(C=C5)O)O)O)O)O)C6=CC(=C(C=C6)O)O)O

> <PUBCHEM_OPENEYE_ISO_SMILES>
C1[C@@H]([C@H](OC2=C1C(=CC(=C2[C@@H]3[C@H]([C@H](OC4=CC(=CC(=C34)O)O)C5=CC(=C(C=C5)O)O)O)O)O)C6=CC(=C(C=C6)O)O)O

> <PUBCHEM_CACTVS_TPSA>
221

> <PUBCHEM_MONOISOTOPIC_WEIGHT>
578.14242626

> <PUBCHEM_TOTAL_CHARGE>
0

> <PUBCHEM_HEAVY_ATOM_COUNT>
42

> <PUBCHEM_ATOM_DEF_STEREO_COUNT>
5

> <PUBCHEM_ATOM_UDEF_STEREO_COUNT>
0

> <PUBCHEM_BOND_DEF_STEREO_COUNT>
0

> <PUBCHEM_BOND_UDEF_STEREO_COUNT>
0

> <PUBCHEM_ISOTOPIC_ATOM_COUNT>
0

> <PUBCHEM_COMPONENT_COUNT>
1

> <PUBCHEM_CACTVS_TAUTO_COUNT>
986

> <PUBCHEM_COORDINATE_TYPE>
1
5
255

> <PUBCHEM_BONDANNOTATIONS>
13  43  6
15  18  8
15  24  8
16  25  6
17  23  8
17  27  8
18  19  8
19  26  8
21  29  5
23  30  8
24  28  8
25  32  8
25  34  8
26  28  8
27  31  8
29  35  8
29  36  8
14  3  6
30  33  8
31  33  8
32  37  8
34  38  8
35  40  8
36  41  8
37  39  8
38  39  8
20  4  6
40  42  8
41  42  8

$$$$
12343877
  SciTegic09112316442D

 23 23  0  0  0  0            999 V2000
    2.8660   -2.4050    0.0000 O   0  0
    5.4641    2.0950    0.0000 O   0  0
    4.5981    0.5950    0.0000 O   0  0
    2.8660    0.5950    0.0000 C   0  0
    2.0000    0.0950    0.0000 C   0  0
    3.7320    0.0950    0.0000 C   0  0
    2.0000   -0.9050    0.0000 C   0  0
    3.7320   -0.9050    0.0000 C   0  0
    2.8660    1.5950    0.0000 C   0  0
    2.8660   -1.4050    0.0000 C   0  0
    3.7320    2.0950    0.0000 C   0  0
    4.5981    1.5950    0.0000 C   0  0
    6.3301    1.5950    0.0000 C   0  0
    1.4631    0.4050    0.0000 H   0  0
    4.2690    0.4050    0.0000 H   0  0
    2.3291    1.9050    0.0000 H   0  0
    1.4631   -1.2150    0.0000 H   0  0
    4.2690   -1.2150    0.0000 H   0  0
    3.7320    2.7150    0.0000 H   0  0
    2.3291   -2.7150    0.0000 H   0  0
    6.0201    1.0581    0.0000 H   0  0
    6.8671    1.2850    0.0000 H   0  0
    6.6401    2.1319    0.0000 H   0  0
  1 10  1  0
  1 20  1  0
  2 12  1  0
  2 13  1  0
  3 12  2  0
  4  5  2  0
  4  6  1  0
  4  9  1  0
  5  7  1  0
  5 14  1  0
  6  8  2  0
  6 15  1  0
  7 10  2  0
  7 17  1  0
  8 10  1  0
  8 18  1  0
  9 11  2  0
  9 16  1  0
 11 12  1  0
 11 19  1  0
 13 21  1  0
 13 22  1  0
 13 23  1  0
M  END
> <Name>
12343877

> <OBJECTID>
9223373114894909454

> <PUBCHEM_COMPOUND_CID>
12343877

> <PUBCHEM_COMPOUND_CANONICALIZED>
1

> <PUBCHEM_CACTVS_COMPLEXITY>
190

> <PUBCHEM_CACTVS_HBOND_ACCEPTOR>
3

> <PUBCHEM_CACTVS_HBOND_DONOR>
1

> <PUBCHEM_CACTVS_ROTATABLE_BOND>
3

> <PUBCHEM_CACTVS_SUBSKEYS>
AAADccBwMAAAAAAAAAAAAAAAAAAAAAAAAAAwAAAAAAAAAAABAAAAGgAACAAADASAmAIyDoAABgCIAiDSCAACAAAgIAAIiAAGCMgIJiKCMRKAcAAkwBEIuYeAwAAOIAAAAAAAAABAAAAAAAAAAAAAAAAAAA==

> <PUBCHEM_IUPAC_OPENEYE_NAME>
methyl (Z)-3-(4-hydroxyphenyl)prop-2-enoate

> <PUBCHEM_IUPAC_CAS_NAME>
(Z)-3-(4-hydroxyphenyl)-2-propenoic acid methyl ester

> <PUBCHEM_IUPAC_NAME_MARKUP>
methyl (<I>Z</I>)-3-(4-hydroxyphenyl)prop-2-enoate

> <PUBCHEM_IUPAC_NAME>
methyl (Z)-3-(4-hydroxyphenyl)prop-2-enoate

> <PUBCHEM_IUPAC_SYSTEMATIC_NAME>
methyl (Z)-3-(4-hydroxyphenyl)prop-2-enoate

> <PUBCHEM_IUPAC_TRADITIONAL_NAME>
(Z)-3-(4-hydroxyphenyl)acrylic acid methyl ester

> <PUBCHEM_IUPAC_INCHI>
InChI=1S/C10H10O3/c1-13-10(12)7-4-8-2-5-9(11)6-3-8/h2-7,11H,1H3/b7-4-

> <PUBCHEM_IUPAC_INCHIKEY>
NITWSHWHQAQBAW-DAXSKMNVSA-N

> <PUBCHEM_XLOGP3>
2.3

> <PUBCHEM_EXACT_MASS>
178.062994177

> <PUBCHEM_MOLECULAR_FORMULA>
C10H10O3

> <PUBCHEM_MOLECULAR_WEIGHT>
178.18

> <PUBCHEM_OPENEYE_CAN_SMILES>
COC(=O)C=CC1=CC=C(C=C1)O

> <PUBCHEM_OPENEYE_ISO_SMILES>
COC(=O)/C=C\C1=CC=C(C=C1)O

> <PUBCHEM_CACTVS_TPSA>
46.5

> <PUBCHEM_MONOISOTOPIC_WEIGHT>
178.062994177

> <PUBCHEM_TOTAL_CHARGE>
0

> <PUBCHEM_HEAVY_ATOM_COUNT>
13

> <PUBCHEM_ATOM_DEF_STEREO_COUNT>
0

> <PUBCHEM_ATOM_UDEF_STEREO_COUNT>
0

> <PUBCHEM_BOND_DEF_STEREO_COUNT>
1

> <PUBCHEM_BOND_UDEF_STEREO_COUNT>
0

> <PUBCHEM_ISOTOPIC_ATOM_COUNT>
0

> <PUBCHEM_COMPONENT_COUNT>
1

> <PUBCHEM_CACTVS_TAUTO_COUNT>
-1

> <PUBCHEM_COORDINATE_TYPE>
1
5
255

> <PUBCHEM_BONDANNOTATIONS>
4  5  8
4  6  8
5  7  8
6  8  8
7  10  8
8  10  8

$$$$
15593124
  SciTegic09112316442D

 83 89  0  0  1  0            999 V2000
    9.5801   -0.8267    0.0000 O   0  0
    6.7942   -3.6111    0.0000 O   0  0
    5.8505   -1.1393    0.0000 O   0  0
   11.3503    1.2321    0.0000 O   0  0
    5.9693   -0.1183    0.0000 O   0  0
    7.8201    2.2080    0.0000 O   0  0
    9.9024   -1.6495    0.0000 O   0  0
   10.1030   -4.8412    0.0000 O   0  0
    3.4977   -5.0718    0.0000 O   0  0
   12.2066   -3.3195    0.0000 O   0  0
    2.2120   -3.5396    0.0000 O   0  0
   10.4785    2.7288    0.0000 O   0  0
   13.9425   -2.3262    0.0000 O   0  0
   14.8105    2.2455    0.0000 O   0  0
   13.0669    5.2388    0.0000 O   0  0
   14.8028    4.2455    0.0000 O   0  0
    7.4782   -1.7317    0.0000 C   0  0  1  0  0  0
    6.4933   -1.9054    0.0000 C   0  0  2  0  0  0
    7.8201   -0.7920    0.0000 C   0  0
    6.1513   -2.8451    0.0000 C   0  0  1  0  0  0
    8.1209   -2.4978    0.0000 C   0  0
    8.6862   -0.2920    0.0000 C   0  0
   10.4862    0.7288    0.0000 C   0  0  1  0  0  0
    8.6862    0.7080    0.0000 C   0  0
   10.4862   -0.3128    0.0000 C   0  0  1  0  0  0
    9.5801    1.2426    0.0000 C   0  0
    7.7789   -3.4374    0.0000 C   0  0
    6.9541   -0.2920    0.0000 C   0  0
    5.1665   -3.0187    0.0000 C   0  0
    7.8201    1.2080    0.0000 C   0  0
    9.1438   -2.3011    0.0000 C   0  0
   11.3503   -0.8162    0.0000 C   0  0
    6.9541    0.7080    0.0000 C   0  0
    8.4360   -4.2456    0.0000 C   0  0
    9.8195   -3.0938    0.0000 C   0  0
    9.4632   -4.0726    0.0000 C   0  0
    4.8245   -3.9584    0.0000 C   0  0
    4.5237   -2.2526    0.0000 C   0  0
   11.3464   -1.8162    0.0000 C   0  0
   12.2182   -0.3195    0.0000 C   0  0
    3.8397   -4.1321    0.0000 C   0  0
    3.5389   -2.4263    0.0000 C   0  0
   11.3464    2.2321    0.0000 C   0  0
   12.2105   -2.3195    0.0000 C   0  0
    3.1969   -3.3660    0.0000 C   0  0
   13.0823   -0.8228    0.0000 C   0  0
   13.0784   -1.8228    0.0000 C   0  0
   12.2105    2.7355    0.0000 C   0  0
   12.2066    3.7355    0.0000 C   0  0
   13.0784    2.2388    0.0000 C   0  0
   13.9425    2.7421    0.0000 C   0  0
   13.0707    4.2388    0.0000 C   0  0
   13.9387    3.7421    0.0000 C   0  0
    6.9318   -1.0806    0.0000 H   0  0
    5.8827   -2.0130    0.0000 H   0  0
    5.9393   -3.4277    0.0000 H   0  0
   11.0237    0.4198    0.0000 H   0  0
   11.0237   -0.0039    0.0000 H   0  0
    9.9737    1.7217    0.0000 H   0  0
    9.1755    1.7124    0.0000 H   0  0
    6.4172    1.0180    0.0000 H   0  0
    5.2399   -1.2469    0.0000 H   0  0
    8.2173   -4.8257    0.0000 H   0  0
   10.4296   -2.9838    0.0000 H   0  0
    5.2230   -4.4334    0.0000 H   0  0
    4.7357   -1.6700    0.0000 H   0  0
   10.8083   -2.1241    0.0000 H   0  0
   12.2206    0.3005    0.0000 H   0  0
    5.7573    0.4643    0.0000 H   0  0
    7.2832    2.5180    0.0000 H   0  0
   10.4874   -1.8548    0.0000 H   0  0
    3.1403   -1.9513    0.0000 H   0  0
   13.6204   -0.5149    0.0000 H   0  0
    9.8887   -5.4229    0.0000 H   0  0
    3.8962   -5.5467    0.0000 H   0  0
   12.7424   -3.6316    0.0000 H   0  0
    2.0000   -4.1223    0.0000 H   0  0
   11.6685    4.0434    0.0000 H   0  0
   13.0808    1.6188    0.0000 H   0  0
   14.4807   -2.0182    0.0000 H   0  0
   15.3462    2.5576    0.0000 H   0  0
   12.5287    5.5467    0.0000 H   0  0
   14.8004    4.8655    0.0000 H   0  0
  1 22  1  0
  1 25  1  0
  2 20  1  0
  2 27  1  0
 18  3  1  6
  3 62  1  0
 23  4  1  1
  4 43  1  0
  5 28  1  0
  5 69  1  0
  6 30  1  0
  6 70  1  0
  7 31  1  0
  7 71  1  0
  8 36  1  0
  8 74  1  0
  9 41  1  0
  9 75  1  0
 10 44  1  0
 10 76  1  0
 11 45  1  0
 11 77  1  0
 12 43  2  0
 13 47  1  0
 13 80  1  0
 14 51  1  0
 14 81  1  0
 15 52  1  0
 15 82  1  0
 16 53  1  0
 16 83  1  0
 17 18  1  0
 17 19  1  0
 17 21  1  0
 17 54  1  6
 18 20  1  0
 18 55  1  0
 19 22  1  0
 19 28  2  0
 20 29  1  6
 20 56  1  0
 21 27  1  0
 21 31  2  0
 22 24  2  0
 23 25  1  0
 23 26  1  0
 23 57  1  0
 24 26  1  0
 24 30  1  0
 25 32  1  1
 25 58  1  0
 26 59  1  0
 26 60  1  0
 27 34  2  0
 28 33  1  0
 29 37  2  0
 29 38  1  0
 30 33  2  0
 31 35  1  0
 32 39  2  0
 32 40  1  0
 33 61  1  0
 34 36  1  0
 34 63  1  0
 35 36  2  0
 35 64  1  0
 37 41  1  0
 37 65  1  0
 38 42  2  0
 38 66  1  0
 39 44  1  0
 39 67  1  0
 40 46  2  0
 40 68  1  0
 41 45  2  0
 42 45  1  0
 42 72  1  0
 43 48  1  0
 44 47  2  0
 46 47  1  0
 46 73  1  0
 48 49  2  0
 48 50  1  0
 49 52  1  0
 49 78  1  0
 50 51  2  0
 50 79  1  0
 51 53  1  0
 52 53  2  0
M  END
> <Name>
15593124

> <OBJECTID>
9223373119189876750

> <PUBCHEM_COMPOUND_CID>
15593124

> <PUBCHEM_COMPOUND_CANONICALIZED>
1

> <PUBCHEM_CACTVS_COMPLEXITY>
1250

> <PUBCHEM_CACTVS_HBOND_ACCEPTOR>
16

> <PUBCHEM_CACTVS_HBOND_DONOR>
12

> <PUBCHEM_CACTVS_ROTATABLE_BOND>
6

> <PUBCHEM_CACTVS_SUBSKEYS>
AAADceB8PgAAAAAAAAAAAAAAAAAAAAAAAAA0aMGDAAAAAACRVAAAGgAACAAADRSgmAIwDoAABgCIAiDSCAACCAAkIAAIiAEGiMgNNzKGNRqCeSGlwBULuYfK7PzOoAADCAAIQABAAAYQABCAAAAAAAAAAA==

> <PUBCHEM_IUPAC_OPENEYE_NAME>
[(2R,3R)-2-(3,4-dihydroxyphenyl)-8-[(2R,3R,4R)-2-(3,4-dihydroxyphenyl)-3,5,7-trihydroxy-chroman-4-yl]-5,7-dihydroxy-chroman-3-yl] 3,4,5-trihydroxybenzoate

> <PUBCHEM_IUPAC_CAS_NAME>
3,4,5-trihydroxybenzoic acid [(2R,3R)-2-(3,4-dihydroxyphenyl)-8-[(2R,3R,4R)-2-(3,4-dihydroxyphenyl)-3,5,7-trihydroxy-3,4-dihydro-2H-1-benzopyran-4-yl]-5,7-dihydroxy-3,4-dihydro-2H-1-benzopyran-3-yl] ester

> <PUBCHEM_IUPAC_NAME_MARKUP>
[(2<I>R</I>,3<I>R</I>)-2-(3,4-dihydroxyphenyl)-8-[(2<I>R</I>,3<I>R</I>,4<I>R</I>)-2-(3,4-dihydroxyphenyl)-3,5,7-trihydroxy-3,4-dihydro-2<I>H</I>-chromen-4-yl]-5,7-dihydroxy-3,4-dihydro-2<I>H</I>-chromen-3-yl] 3,4,5-trihydroxybenzoate

> <PUBCHEM_IUPAC_NAME>
[(2R,3R)-2-(3,4-dihydroxyphenyl)-8-[(2R,3R,4R)-2-(3,4-dihydroxyphenyl)-3,5,7-trihydroxy-3,4-dihydro-2H-chromen-4-yl]-5,7-dihydroxy-3,4-dihydro-2H-chromen-3-yl] 3,4,5-trihydroxybenzoate

> <PUBCHEM_IUPAC_SYSTEMATIC_NAME>
[(2R,3R)-2-[3,4-bis(oxidanyl)phenyl]-8-[(2R,3R,4R)-2-[3,4-bis(oxidanyl)phenyl]-3,5,7-tris(oxidanyl)-3,4-dihydro-2H-chromen-4-yl]-5,7-bis(oxidanyl)-3,4-dihydro-2H-chromen-3-yl] 3,4,5-tris(oxidanyl)benzoate

> <PUBCHEM_IUPAC_TRADITIONAL_NAME>
3,4,5-trihydroxybenzoic acid [(2R,3R)-2-(3,4-dihydroxyphenyl)-8-[(2R,3R,4R)-2-(3,4-dihydroxyphenyl)-3,5,7-trihydroxy-chroman-4-yl]-5,7-dihydroxy-chroman-3-yl] ester

> <PUBCHEM_IUPAC_INCHI>
InChI=1S/C37H30O16/c38-16-9-23(44)29-27(10-16)51-35(14-2-4-19(40)22(43)6-14)33(49)31(29)30-24(45)12-20(41)17-11-28(52-37(50)15-7-25(46)32(48)26(47)8-15)34(53-36(17)30)13-1-3-18(39)21(42)5-13/h1-10,12,28,31,33-35,38-49H,11H2/t28-,31-,33-,34-,35-/m1/s1

> <PUBCHEM_IUPAC_INCHIKEY>
VLFKNLZNDSEVBZ-BTWXELLASA-N

> <PUBCHEM_XLOGP3_AA>
3.5

> <PUBCHEM_EXACT_MASS>
730.15338487

> <PUBCHEM_MOLECULAR_FORMULA>
C37H30O16

> <PUBCHEM_MOLECULAR_WEIGHT>
730.6

> <PUBCHEM_OPENEYE_CAN_SMILES>
C1C(C(OC2=C1C(=CC(=C2C3C(C(OC4=CC(=CC(=C34)O)O)C5=CC(=C(C=C5)O)O)O)O)O)C6=CC(=C(C=C6)O)O)OC(=O)C7=CC(=C(C(=C7)O)O)O

> <PUBCHEM_OPENEYE_ISO_SMILES>
C1[C@H]([C@H](OC2=C1C(=CC(=C2[C@@H]3[C@H]([C@H](OC4=CC(=CC(=C34)O)O)C5=CC(=C(C=C5)O)O)O)O)O)C6=CC(=C(C=C6)O)O)OC(=O)C7=CC(=C(C(=C7)O)O)O

> <PUBCHEM_CACTVS_TPSA>
288

> <PUBCHEM_MONOISOTOPIC_WEIGHT>
730.15338487

> <PUBCHEM_TOTAL_CHARGE>
0

> <PUBCHEM_HEAVY_ATOM_COUNT>
53

> <PUBCHEM_ATOM_DEF_STEREO_COUNT>
5

> <PUBCHEM_ATOM_UDEF_STEREO_COUNT>
0

> <PUBCHEM_BOND_DEF_STEREO_COUNT>
0

> <PUBCHEM_BOND_UDEF_STEREO_COUNT>
0

> <PUBCHEM_ISOTOPIC_ATOM_COUNT>
0

> <PUBCHEM_COMPONENT_COUNT>
1

> <PUBCHEM_CACTVS_TAUTO_COUNT>
986

> <PUBCHEM_COORDINATE_TYPE>
1
5
255

> <PUBCHEM_BONDANNOTATIONS>
17  54  6
19  22  8
19  28  8
20  29  6
21  27  8
21  31  8
22  24  8
24  30  8
25  32  5
27  34  8
28  33  8
29  37  8
29  38  8
18  3  6
30  33  8
31  35  8
32  39  8
32  40  8
34  36  8
35  36  8
37  41  8
38  42  8
39  44  8
23  4  5
40  46  8
41  45  8
42  45  8
44  47  8
46  47  8
48  49  8
48  50  8
49  52  8
50  51  8
51  53  8
52  53  8

$$$$
53955370
  SciTegic09112316442D

 57 56  0  0  1  0            999 V2000
    9.7942    1.2500    0.0000 O   0  0
    8.9282   -1.2500    0.0000 O   0  0
    8.0622    1.2500    0.0000 O   0  0
   17.5885   -0.2500    0.0000 O   0  0
   16.7224    1.2500    0.0000 O   0  0
   10.6603   -0.2500    0.0000 C   0  0
    9.7942    0.2500    0.0000 C   0  0
   11.5263    0.2500    0.0000 C   0  0
   12.3923   -0.2500    0.0000 C   0  0
    8.9282   -0.2500    0.0000 C   0  0
   13.2583    0.2500    0.0000 C   0  0
    8.0622    0.2500    0.0000 C   0  0
   14.1244   -0.2500    0.0000 C   0  0
   14.9904    0.2500    0.0000 C   0  0
    7.1962   -0.2500    0.0000 C   0  0
   15.8564   -0.2500    0.0000 C   0  0
    5.4641   -0.2500    0.0000 C   0  0
    4.5981    0.2500    0.0000 C   0  0
    6.3301    0.2500    0.0000 C   0  0
    3.7320   -0.2500    0.0000 C   0  0
    2.8660    0.2500    0.0000 C   0  0
   16.7224    0.2500    0.0000 C   0  0
    2.0000   -0.2500    0.0000 C   0  0
   10.2617   -0.7249    0.0000 H   0  0
   11.0588   -0.7249    0.0000 H   0  0
    9.2573    0.5600    0.0000 H   0  0
   11.9248    0.7249    0.0000 H   0  0
   11.1278    0.7249    0.0000 H   0  0
   11.9938   -0.7249    0.0000 H   0  0
   12.7908   -0.7249    0.0000 H   0  0
    9.4651   -0.5600    0.0000 H   0  0
   13.6569    0.7249    0.0000 H   0  0
   12.8598    0.7249    0.0000 H   0  0
    7.5252    0.5600    0.0000 H   0  0
   13.7258   -0.7249    0.0000 H   0  0
   14.5229   -0.7249    0.0000 H   0  0
   15.3889    0.7249    0.0000 H   0  0
   14.5919    0.7249    0.0000 H   0  0
    7.1962   -0.8700    0.0000 H   0  0
   10.3312    1.5600    0.0000 H   0  0
    8.3913   -1.5600    0.0000 H   0  0
   15.4579   -0.7249    0.0000 H   0  0
   16.2549   -0.7249    0.0000 H   0  0
    5.0656   -0.7249    0.0000 H   0  0
    5.8626   -0.7249    0.0000 H   0  0
    4.9966    0.7249    0.0000 H   0  0
    4.1996    0.7249    0.0000 H   0  0
    6.3301    0.8700    0.0000 H   0  0
    3.3335   -0.7249    0.0000 H   0  0
    4.1306   -0.7249    0.0000 H   0  0
    7.5252    1.5600    0.0000 H   0  0
    3.2646    0.7249    0.0000 H   0  0
    2.4675    0.7249    0.0000 H   0  0
    1.6900    0.2869    0.0000 H   0  0
    1.4631   -0.5600    0.0000 H   0  0
    2.3100   -0.7869    0.0000 H   0  0
   18.1254    0.0600    0.0000 H   0  0
  1  7  1  0
  1 40  1  0
  2 10  1  0
  2 41  1  0
  3 12  1  0
  3 51  1  0
  4 22  1  0
  4 57  1  0
  5 22  2  0
  6  7  1  0
  6  8  1  0
  6 24  1  0
  6 25  1  0
  7 10  1  0
  7 26  1  0
  8  9  1  0
  8 27  1  0
  8 28  1  0
  9 11  1  0
  9 29  1  0
  9 30  1  0
 10 12  1  0
 10 31  1  0
 11 13  1  0
 11 32  1  0
 11 33  1  0
 12 15  1  0
 12 34  1  0
 13 14  1  0
 13 35  1  0
 13 36  1  0
 14 16  1  0
 14 37  1  0
 14 38  1  0
 15 19  2  3
 15 39  1  0
 16 22  1  0
 16 42  1  0
 16 43  1  0
 17 18  1  0
 17 19  1  0
 17 44  1  0
 17 45  1  0
 18 20  1  0
 18 46  1  0
 18 47  1  0
 19 48  1  0
 20 21  1  0
 20 49  1  0
 20 50  1  0
 21 23  1  0
 21 52  1  0
 21 53  1  0
 23 54  1  0
 23 55  1  0
 23 56  1  0
M  END
> <Name>
53955370

> <OBJECTID>
9223373123484844046

> <PUBCHEM_COMPOUND_CID>
53955370

> <PUBCHEM_COMPOUND_CANONICALIZED>
1

> <PUBCHEM_CACTVS_COMPLEXITY>
317

> <PUBCHEM_CACTVS_HBOND_ACCEPTOR>
5

> <PUBCHEM_CACTVS_HBOND_DONOR>
4

> <PUBCHEM_CACTVS_ROTATABLE_BOND>
15

> <PUBCHEM_CACTVS_SUBSKEYS>
AAADcfB4OAAAAAAAAAAAAAAAAAAAAAAAAAAAAAAAAAAAAAAAAAAAGgAACAAACBSggAICCAAAAgCIACDSCAAAAAAgAAAICAEAAAgBFBIAAQAAUAAFwAAJEAOIyKCAAAAAAAAAAAAAAAAAAAAAAAAAAAAAAA==

> <PUBCHEM_IUPAC_OPENEYE_NAME>
9,10,11-trihydroxyoctadec-12-enoic acid

> <PUBCHEM_IUPAC_CAS_NAME>
9,10,11-trihydroxy-12-octadecenoic acid

> <PUBCHEM_IUPAC_NAME_MARKUP>
9,10,11-trihydroxyoctadec-12-enoic acid

> <PUBCHEM_IUPAC_NAME>
9,10,11-trihydroxyoctadec-12-enoic acid

> <PUBCHEM_IUPAC_SYSTEMATIC_NAME>
9,10,11-tris(oxidanyl)octadec-12-enoic acid

> <PUBCHEM_IUPAC_TRADITIONAL_NAME>
9,10,11-trihydroxyoctadec-12-enoic acid

> <PUBCHEM_IUPAC_INCHI>
InChI=1S/C18H34O5/c1-2-3-4-6-9-12-15(19)18(23)16(20)13-10-7-5-8-11-14-17(21)22/h9,12,15-16,18-20,23H,2-8,10-11,13-14H2,1H3,(H,21,22)

> <PUBCHEM_IUPAC_INCHIKEY>
JHGVFGJXFVIYSM-UHFFFAOYSA-N

> <PUBCHEM_XLOGP3_AA>
3.5

> <PUBCHEM_EXACT_MASS>
330.24062418

> <PUBCHEM_MOLECULAR_FORMULA>
C18H34O5

> <PUBCHEM_MOLECULAR_WEIGHT>
330.5

> <PUBCHEM_OPENEYE_CAN_SMILES>
CCCCCC=CC(C(C(CCCCCCCC(=O)O)O)O)O

> <PUBCHEM_OPENEYE_ISO_SMILES>
CCCCCC=CC(C(C(CCCCCCCC(=O)O)O)O)O

> <PUBCHEM_CACTVS_TPSA>
98

> <PUBCHEM_MONOISOTOPIC_WEIGHT>
330.24062418

> <PUBCHEM_TOTAL_CHARGE>
0

> <PUBCHEM_HEAVY_ATOM_COUNT>
23

> <PUBCHEM_ATOM_DEF_STEREO_COUNT>
0

> <PUBCHEM_ATOM_UDEF_STEREO_COUNT>
3

> <PUBCHEM_BOND_DEF_STEREO_COUNT>
0

> <PUBCHEM_BOND_UDEF_STEREO_COUNT>
1

> <PUBCHEM_ISOTOPIC_ATOM_COUNT>
0

> <PUBCHEM_COMPONENT_COUNT>
1

> <PUBCHEM_CACTVS_TAUTO_COUNT>
-1

> <PUBCHEM_COORDINATE_TYPE>
1
5
255

> <PUBCHEM_BONDANNOTATIONS>
7  1  3
15  19  1
10  2  3
12  3  3

$$$$
69964214
  SciTegic09112316442D

 75 79  0  0  1  0            999 V2000
    6.8671   -3.8696    0.0000 O   0  0
    5.1350   -1.8696    0.0000 O   0  0
    7.7331   -2.3696    0.0000 O   0  0
    5.1350   -4.8696    0.0000 O   0  0
    6.8671   -1.8696    0.0000 O   0  0
    3.4030   -3.8696    0.0000 O   0  0
    8.5991   -4.8696    0.0000 O   0  0
   10.3312   -3.8696    0.0000 O   0  0
   10.3312   -1.8696    0.0000 O   0  0
    2.5369   -2.3696    0.0000 O   0  0
    8.6230    1.1930    0.0000 O   0  0
    5.1208    1.2096    0.0000 O   0  0
    6.0308    2.7030    0.0000 O   0  0
   12.0987    4.1796    0.0000 O   0  0
   12.0910    2.1796    0.0000 O   0  0
    6.0010   -3.3696    0.0000 C   0  0  2  0  0  0
    5.1350   -3.8696    0.0000 C   0  0  2  0  0  0
    4.2690   -3.3696    0.0000 C   0  0  1  0  0  0
    7.7331   -3.3696    0.0000 C   0  0  2  0  0  0
    8.5991   -3.8696    0.0000 C   0  0  1  0  0  0
    6.0010   -2.3696    0.0000 C   0  0  1  0  0  0
    4.2690   -2.3696    0.0000 C   0  0  1  0  0  0
    9.4651   -3.3696    0.0000 C   0  0  1  0  0  0
    9.4651   -2.3696    0.0000 C   0  0  2  0  0  0
    8.5991   -1.8696    0.0000 C   0  0  2  0  0  0
    3.4030   -1.8696    0.0000 C   0  0
    8.5991   -0.8696    0.0000 C   0  0
    6.8671   -0.8696    0.0000 C   0  0
    7.7671   -0.3453    0.0000 C   0  0
    5.9670   -0.3453    0.0000 C   0  0
    7.7551    0.6963    0.0000 C   0  0
    5.9790    0.6963    0.0000 C   0  0
    6.8910    1.1996    0.0000 C   0  0
    6.8948    2.1996    0.0000 C   0  0
    8.6269    2.1929    0.0000 C   0  0
    7.7628    2.6963    0.0000 C   0  0
    9.4948    2.6896    0.0000 C   0  0
   10.3589    2.1863    0.0000 C   0  0
    9.4987    3.6896    0.0000 C   0  0
   11.2269    2.6829    0.0000 C   0  0
   10.3666    4.1862    0.0000 C   0  0
   11.2307    3.6829    0.0000 C   0  0
   12.1025    5.1796    0.0000 C   0  0
    6.0010   -3.9896    0.0000 H   0  0
    4.5981   -4.1796    0.0000 H   0  0
    4.2690   -3.9896    0.0000 H   0  0
    7.7331   -3.9896    0.0000 H   0  0
    9.1360   -4.1796    0.0000 H   0  0
    6.0010   -1.7496    0.0000 H   0  0
    4.2690   -1.7496    0.0000 H   0  0
    9.4651   -3.9896    0.0000 H   0  0
   10.0021   -2.6796    0.0000 H   0  0
    8.0622   -1.5596    0.0000 H   0  0
    3.8015   -1.3946    0.0000 H   0  0
    3.0044   -1.3946    0.0000 H   0  0
    9.2191   -0.8696    0.0000 H   0  0
    8.5991   -0.2496    0.0000 H   0  0
    7.9791   -0.8696    0.0000 H   0  0
    4.5981   -5.1796    0.0000 H   0  0
    3.4030   -4.4896    0.0000 H   0  0
    9.1360   -5.1796    0.0000 H   0  0
   10.8681   -3.5596    0.0000 H   0  0
   10.8681   -2.1796    0.0000 H   0  0
    2.0000   -2.0596    0.0000 H   0  0
    8.3064   -0.6511    0.0000 H   0  0
    5.4277   -0.6511    0.0000 H   0  0
    7.7652    3.3163    0.0000 H   0  0
    4.5792    0.9079    0.0000 H   0  0
   10.3565    1.5663    0.0000 H   0  0
    8.9630    4.0017    0.0000 H   0  0
   10.3690    4.8062    0.0000 H   0  0
   12.6291    2.4875    0.0000 H   0  0
   12.7225    5.1772    0.0000 H   0  0
   12.1049    5.7996    0.0000 H   0  0
   11.4825    5.1819    0.0000 H   0  0
 16  1  1  6
 19  1  1  6
  2 21  1  0
  2 22  1  0
  3 19  1  0
  3 25  1  0
 17  4  1  1
  4 59  1  0
 21  5  1  1
  5 28  1  0
 18  6  1  6
  6 60  1  0
 20  7  1  1
  7 61  1  0
 23  8  1  1
  8 62  1  0
 24  9  1  6
  9 63  1  0
 10 26  1  0
 10 64  1  0
 11 31  1  0
 11 35  1  0
 12 32  1  0
 12 68  1  0
 13 34  2  0
 14 42  1  0
 14 43  1  0
 15 40  1  0
 15 72  1  0
 16 17  1  0
 16 21  1  0
 16 44  1  0
 17 18  1  0
 17 45  1  0
 18 22  1  0
 18 46  1  0
 19 20  1  0
 19 47  1  0
 20 23  1  0
 20 48  1  0
 21 49  1  0
 22 26  1  1
 22 50  1  0
 23 24  1  0
 23 51  1  0
 24 25  1  0
 24 52  1  0
 25 27  1  1
 25 53  1  0
 26 54  1  0
 26 55  1  0
 27 56  1  0
 27 57  1  0
 27 58  1  0
 28 29  1  0
 28 30  2  0
 29 31  2  0
 29 65  1  0
 30 32  1  0
 30 66  1  0
 31 33  1  0
 32 33  2  0
 33 34  1  0
 34 36  1  0
 35 36  2  0
 35 37  1  0
 36 67  1  0
 37 38  2  0
 37 39  1  0
 38 40  1  0
 38 69  1  0
 39 41  2  0
 39 70  1  0
 40 42  2  0
 41 42  1  0
 41 71  1  0
 43 73  1  0
 43 74  1  0
 43 75  1  0
M  END
> <Name>
69964214

> <OBJECTID>
9223373127779811342

> <PUBCHEM_COMPOUND_CID>
69964214

> <PUBCHEM_COMPOUND_CANONICALIZED>
1

> <PUBCHEM_CACTVS_COMPLEXITY>
995

> <PUBCHEM_CACTVS_HBOND_ACCEPTOR>
15

> <PUBCHEM_CACTVS_HBOND_DONOR>
8

> <PUBCHEM_CACTVS_ROTATABLE_BOND>
7

> <PUBCHEM_CACTVS_SUBSKEYS>
AAADcfB4PAAAAAAAAAAAAAAAAAAAAAAAAAA0aIECAAAAAACBQAAAGgAACAAADBSwmAMyDoAABgCIAqBSAAACCAAkIAAIiAEGiMgdNzaGNRqieWOl4BUPuQfI7LzOIAABCAAIQABAAAIQABCAAAAAAAAAAA==

> <PUBCHEM_IUPAC_OPENEYE_NAME>
7-[(2S,3R,4S,5S,6R)-4,5-dihydroxy-6-(hydroxymethyl)-3-[(2S,3R,4R,5R,6S)-3,4,5-trihydroxy-6-methyl-tetrahydropyran-2-yl]oxy-tetrahydropyran-2-yl]oxy-5-hydroxy-2-(3-hydroxy-4-methoxy-phenyl)chromen-4-one

> <PUBCHEM_IUPAC_CAS_NAME>
7-[[(2S,3R,4S,5S,6R)-4,5-dihydroxy-6-(hydroxymethyl)-3-[[(2S,3R,4R,5R,6S)-3,4,5-trihydroxy-6-methyl-2-oxanyl]oxy]-2-oxanyl]oxy]-5-hydroxy-2-(3-hydroxy-4-methoxyphenyl)-1-benzopyran-4-one

> <PUBCHEM_IUPAC_NAME_MARKUP>
7-[(2<I>S</I>,3<I>R</I>,4<I>S</I>,5<I>S</I>,6<I>R</I>)-4,5-dihydroxy-6-(hydroxymethyl)-3-[(2<I>S</I>,3<I>R</I>,4<I>R</I>,5<I>R</I>,6<I>S</I>)-3,4,5-trihydroxy-6-methyloxan-2-yl]oxyoxan-2-yl]oxy-5-hydroxy-2-(3-hydroxy-4-methoxyphenyl)chromen-4-one

> <PUBCHEM_IUPAC_NAME>
7-[(2S,3R,4S,5S,6R)-4,5-dihydroxy-6-(hydroxymethyl)-3-[(2S,3R,4R,5R,6S)-3,4,5-trihydroxy-6-methyloxan-2-yl]oxyoxan-2-yl]oxy-5-hydroxy-2-(3-hydroxy-4-methoxyphenyl)chromen-4-one

> <PUBCHEM_IUPAC_SYSTEMATIC_NAME>
7-[(2S,3R,4S,5S,6R)-6-(hydroxymethyl)-3-[(2S,3R,4R,5R,6S)-6-methyl-3,4,5-tris(oxidanyl)oxan-2-yl]oxy-4,5-bis(oxidanyl)oxan-2-yl]oxy-2-(4-methoxy-3-oxidanyl-phenyl)-5-oxidanyl-chromen-4-one

> <PUBCHEM_IUPAC_TRADITIONAL_NAME>
7-[(2S,3R,4S,5S,6R)-4,5-dihydroxy-6-methylol-3-[(2S,3R,4R,5R,6S)-3,4,5-trihydroxy-6-methyl-tetrahydropyran-2-yl]oxy-tetrahydropyran-2-yl]oxy-5-hydroxy-2-(3-hydroxy-4-methoxy-phenyl)chromone

> <PUBCHEM_IUPAC_INCHI>
InChI=1S/C28H32O15/c1-10-21(33)23(35)25(37)27(39-10)43-26-24(36)22(34)19(9-29)42-28(26)40-12-6-14(31)20-15(32)8-17(41-18(20)7-12)11-3-4-16(38-2)13(30)5-11/h3-8,10,19,21-31,33-37H,9H2,1-2H3/t10-,19+,21-,22+,23+,24-,25+,26+,27-,28+/m0/s1

> <PUBCHEM_IUPAC_INCHIKEY>
VCCNKWWXYVWTLT-CYZBKYQRSA-N

> <PUBCHEM_XLOGP3_AA>
-0.3

> <PUBCHEM_EXACT_MASS>
608.17412031

> <PUBCHEM_MOLECULAR_FORMULA>
C28H32O15

> <PUBCHEM_MOLECULAR_WEIGHT>
608.5

> <PUBCHEM_OPENEYE_CAN_SMILES>
CC1C(C(C(C(O1)OC2C(C(C(OC2OC3=CC(=C4C(=C3)OC(=CC4=O)C5=CC(=C(C=C5)OC)O)O)CO)O)O)O)O)O

> <PUBCHEM_OPENEYE_ISO_SMILES>
C[C@H]1[C@@H]([C@H]([C@H]([C@@H](O1)O[C@@H]2[C@H]([C@@H]([C@H](O[C@H]2OC3=CC(=C4C(=C3)OC(=CC4=O)C5=CC(=C(C=C5)OC)O)O)CO)O)O)O)O)O

> <PUBCHEM_CACTVS_TPSA>
234

> <PUBCHEM_MONOISOTOPIC_WEIGHT>
608.17412031

> <PUBCHEM_TOTAL_CHARGE>
0

> <PUBCHEM_HEAVY_ATOM_COUNT>
43

> <PUBCHEM_ATOM_DEF_STEREO_COUNT>
10

> <PUBCHEM_ATOM_UDEF_STEREO_COUNT>
0

> <PUBCHEM_BOND_DEF_STEREO_COUNT>
0

> <PUBCHEM_BOND_UDEF_STEREO_COUNT>
0

> <PUBCHEM_ISOTOPIC_ATOM_COUNT>
0

> <PUBCHEM_COMPONENT_COUNT>
1

> <PUBCHEM_CACTVS_TAUTO_COUNT>
-1

> <PUBCHEM_COORDINATE_TYPE>
1
5
255

> <PUBCHEM_BONDANNOTATIONS>
16  1  6
19  1  6
11  31  8
11  35  8
22  26  5
25  27  5
28  29  8
28  30  8
29  31  8
30  32  8
31  33  8
32  33  8
33  34  8
34  36  8
35  36  8
37  38  8
37  39  8
38  40  8
39  41  8
17  4  5
40  42  8
41  42  8
21  5  5
18  6  6
20  7  5
23  8  5
24  9  6

$$$$
72193635
  SciTegic09112316442D

 83 89  0  0  1  0            999 V2000
    9.5801   -0.8267    0.0000 O   0  0
    6.7942   -3.6111    0.0000 O   0  0
    5.8505   -1.1393    0.0000 O   0  0
   11.3503    1.2321    0.0000 O   0  0
    5.9693   -0.1183    0.0000 O   0  0
    7.8201    2.2080    0.0000 O   0  0
    9.9024   -1.6495    0.0000 O   0  0
   10.1030   -4.8412    0.0000 O   0  0
    3.4977   -5.0718    0.0000 O   0  0
   12.2066   -3.3195    0.0000 O   0  0
    2.2120   -3.5396    0.0000 O   0  0
   10.4785    2.7288    0.0000 O   0  0
   13.9425   -2.3262    0.0000 O   0  0
   14.8105    2.2455    0.0000 O   0  0
   13.0669    5.2388    0.0000 O   0  0
   14.8028    4.2455    0.0000 O   0  0
    7.4782   -1.7317    0.0000 C   0  0  1  0  0  0
    6.4933   -1.9054    0.0000 C   0  0  2  0  0  0
    7.8201   -0.7920    0.0000 C   0  0
    6.1513   -2.8451    0.0000 C   0  0  1  0  0  0
    8.1209   -2.4978    0.0000 C   0  0
    8.6862   -0.2920    0.0000 C   0  0
   10.4862    0.7288    0.0000 C   0  0  2  0  0  0
    8.6862    0.7080    0.0000 C   0  0
   10.4862   -0.3128    0.0000 C   0  0  1  0  0  0
    9.5801    1.2426    0.0000 C   0  0
    7.7789   -3.4374    0.0000 C   0  0
    6.9541   -0.2920    0.0000 C   0  0
    5.1665   -3.0187    0.0000 C   0  0
    7.8201    1.2080    0.0000 C   0  0
    9.1438   -2.3011    0.0000 C   0  0
   11.3503   -0.8162    0.0000 C   0  0
    6.9541    0.7080    0.0000 C   0  0
    8.4360   -4.2456    0.0000 C   0  0
    9.8195   -3.0938    0.0000 C   0  0
    9.4632   -4.0726    0.0000 C   0  0
    4.8245   -3.9584    0.0000 C   0  0
    4.5237   -2.2526    0.0000 C   0  0
   11.3464   -1.8162    0.0000 C   0  0
   12.2182   -0.3195    0.0000 C   0  0
    3.8397   -4.1321    0.0000 C   0  0
    3.5389   -2.4263    0.0000 C   0  0
   11.3464    2.2321    0.0000 C   0  0
   12.2105   -2.3195    0.0000 C   0  0
    3.1969   -3.3660    0.0000 C   0  0
   13.0823   -0.8228    0.0000 C   0  0
   13.0784   -1.8228    0.0000 C   0  0
   12.2105    2.7355    0.0000 C   0  0
   12.2066    3.7355    0.0000 C   0  0
   13.0784    2.2388    0.0000 C   0  0
   13.9425    2.7421    0.0000 C   0  0
   13.0707    4.2388    0.0000 C   0  0
   13.9387    3.7421    0.0000 C   0  0
    6.9318   -1.0806    0.0000 H   0  0
    5.8827   -2.0130    0.0000 H   0  0
    5.9393   -3.4277    0.0000 H   0  0
   11.0237    0.4198    0.0000 H   0  0
   11.0237   -0.0039    0.0000 H   0  0
    9.9737    1.7217    0.0000 H   0  0
    9.1755    1.7124    0.0000 H   0  0
    6.4172    1.0180    0.0000 H   0  0
    5.2399   -1.2469    0.0000 H   0  0
    8.2173   -4.8257    0.0000 H   0  0
   10.4296   -2.9838    0.0000 H   0  0
    5.2230   -4.4334    0.0000 H   0  0
    4.7357   -1.6700    0.0000 H   0  0
   10.8083   -2.1241    0.0000 H   0  0
   12.2206    0.3005    0.0000 H   0  0
    5.7573    0.4643    0.0000 H   0  0
    7.2832    2.5180    0.0000 H   0  0
   10.4874   -1.8548    0.0000 H   0  0
    3.1403   -1.9513    0.0000 H   0  0
   13.6204   -0.5149    0.0000 H   0  0
    9.8887   -5.4229    0.0000 H   0  0
    3.8962   -5.5467    0.0000 H   0  0
   12.7424   -3.6316    0.0000 H   0  0
    2.0000   -4.1223    0.0000 H   0  0
   11.6685    4.0434    0.0000 H   0  0
   13.0808    1.6188    0.0000 H   0  0
   14.4807   -2.0182    0.0000 H   0  0
   15.3462    2.5576    0.0000 H   0  0
   12.5287    5.5467    0.0000 H   0  0
   14.8004    4.8655    0.0000 H   0  0
  1 22  1  0
  1 25  1  0
  2 20  1  0
  2 27  1  0
 18  3  1  6
  3 62  1  0
 23  4  1  6
  4 43  1  0
  5 28  1  0
  5 69  1  0
  6 30  1  0
  6 70  1  0
  7 31  1  0
  7 71  1  0
  8 36  1  0
  8 74  1  0
  9 41  1  0
  9 75  1  0
 10 44  1  0
 10 76  1  0
 11 45  1  0
 11 77  1  0
 12 43  2  0
 13 47  1  0
 13 80  1  0
 14 51  1  0
 14 81  1  0
 15 52  1  0
 15 82  1  0
 16 53  1  0
 16 83  1  0
 17 18  1  0
 17 19  1  0
 17 21  1  0
 17 54  1  6
 18 20  1  0
 18 55  1  0
 19 22  1  0
 19 28  2  0
 20 29  1  6
 20 56  1  0
 21 27  1  0
 21 31  2  0
 22 24  2  0
 23 25  1  0
 23 26  1  0
 23 57  1  0
 24 26  1  0
 24 30  1  0
 25 32  1  1
 25 58  1  0
 26 59  1  0
 26 60  1  0
 27 34  2  0
 28 33  1  0
 29 37  2  0
 29 38  1  0
 30 33  2  0
 31 35  1  0
 32 39  2  0
 32 40  1  0
 33 61  1  0
 34 36  1  0
 34 63  1  0
 35 36  2  0
 35 64  1  0
 37 41  1  0
 37 65  1  0
 38 42  2  0
 38 66  1  0
 39 44  1  0
 39 67  1  0
 40 46  2  0
 40 68  1  0
 41 45  2  0
 42 45  1  0
 42 72  1  0
 43 48  1  0
 44 47  2  0
 46 47  1  0
 46 73  1  0
 48 49  2  0
 48 50  1  0
 49 52  1  0
 49 78  1  0
 50 51  2  0
 50 79  1  0
 51 53  1  0
 52 53  2  0
M  END
> <Name>
72193635

> <OBJECTID>
9223373132074778638

> <PUBCHEM_COMPOUND_CID>
72193635

> <PUBCHEM_COMPOUND_CANONICALIZED>
1

> <PUBCHEM_CACTVS_COMPLEXITY>
1250

> <PUBCHEM_CACTVS_HBOND_ACCEPTOR>
16

> <PUBCHEM_CACTVS_HBOND_DONOR>
12

> <PUBCHEM_CACTVS_ROTATABLE_BOND>
6

> <PUBCHEM_CACTVS_SUBSKEYS>
AAADceB8PgAAAAAAAAAAAAAAAAAAAAAAAAA0aMGDAAAAAACRVAAAGgAACAAADRSgmAIwDoAABgCIAiDSCAACCAAkIAAIiAEGiMgNNzKGNRqCeSGlwBULuYfK7PzOoAADCAAIQABAAAYQABCAAAAAAAAAAA==

> <PUBCHEM_IUPAC_OPENEYE_NAME>
[(2R,3S)-2-(3,4-dihydroxyphenyl)-8-[(2R,3R,4R)-2-(3,4-dihydroxyphenyl)-3,5,7-trihydroxy-chroman-4-yl]-5,7-dihydroxy-chroman-3-yl] 3,4,5-trihydroxybenzoate

> <PUBCHEM_IUPAC_CAS_NAME>
3,4,5-trihydroxybenzoic acid [(2R,3S)-2-(3,4-dihydroxyphenyl)-8-[(2R,3R,4R)-2-(3,4-dihydroxyphenyl)-3,5,7-trihydroxy-3,4-dihydro-2H-1-benzopyran-4-yl]-5,7-dihydroxy-3,4-dihydro-2H-1-benzopyran-3-yl] ester

> <PUBCHEM_IUPAC_NAME_MARKUP>
[(2<I>R</I>,3<I>S</I>)-2-(3,4-dihydroxyphenyl)-8-[(2<I>R</I>,3<I>R</I>,4<I>R</I>)-2-(3,4-dihydroxyphenyl)-3,5,7-trihydroxy-3,4-dihydro-2<I>H</I>-chromen-4-yl]-5,7-dihydroxy-3,4-dihydro-2<I>H</I>-chromen-3-yl] 3,4,5-trihydroxybenzoate

> <PUBCHEM_IUPAC_NAME>
[(2R,3S)-2-(3,4-dihydroxyphenyl)-8-[(2R,3R,4R)-2-(3,4-dihydroxyphenyl)-3,5,7-trihydroxy-3,4-dihydro-2H-chromen-4-yl]-5,7-dihydroxy-3,4-dihydro-2H-chromen-3-yl] 3,4,5-trihydroxybenzoate

> <PUBCHEM_IUPAC_SYSTEMATIC_NAME>
[(2R,3S)-2-[3,4-bis(oxidanyl)phenyl]-8-[(2R,3R,4R)-2-[3,4-bis(oxidanyl)phenyl]-3,5,7-tris(oxidanyl)-3,4-dihydro-2H-chromen-4-yl]-5,7-bis(oxidanyl)-3,4-dihydro-2H-chromen-3-yl] 3,4,5-tris(oxidanyl)benzoate

> <PUBCHEM_IUPAC_TRADITIONAL_NAME>
3,4,5-trihydroxybenzoic acid [(2R,3S)-2-(3,4-dihydroxyphenyl)-8-[(2R,3R,4R)-2-(3,4-dihydroxyphenyl)-3,5,7-trihydroxy-chroman-4-yl]-5,7-dihydroxy-chroman-3-yl] ester

> <PUBCHEM_IUPAC_INCHI>
InChI=1S/C37H30O16/c38-16-9-23(44)29-27(10-16)51-35(14-2-4-19(40)22(43)6-14)33(49)31(29)30-24(45)12-20(41)17-11-28(52-37(50)15-7-25(46)32(48)26(47)8-15)34(53-36(17)30)13-1-3-18(39)21(42)5-13/h1-10,12,28,31,33-35,38-49H,11H2/t28-,31+,33+,34+,35+/m0/s1

> <PUBCHEM_IUPAC_INCHIKEY>
VLFKNLZNDSEVBZ-XOKZLUOPSA-N

> <PUBCHEM_XLOGP3_AA>
3.5

> <PUBCHEM_EXACT_MASS>
730.15338487

> <PUBCHEM_MOLECULAR_FORMULA>
C37H30O16

> <PUBCHEM_MOLECULAR_WEIGHT>
730.6

> <PUBCHEM_OPENEYE_CAN_SMILES>
C1C(C(OC2=C1C(=CC(=C2C3C(C(OC4=CC(=CC(=C34)O)O)C5=CC(=C(C=C5)O)O)O)O)O)C6=CC(=C(C=C6)O)O)OC(=O)C7=CC(=C(C(=C7)O)O)O

> <PUBCHEM_OPENEYE_ISO_SMILES>
C1[C@@H]([C@H](OC2=C1C(=CC(=C2[C@@H]3[C@H]([C@H](OC4=CC(=CC(=C34)O)O)C5=CC(=C(C=C5)O)O)O)O)O)C6=CC(=C(C=C6)O)O)OC(=O)C7=CC(=C(C(=C7)O)O)O

> <PUBCHEM_CACTVS_TPSA>
288

> <PUBCHEM_MONOISOTOPIC_WEIGHT>
730.15338487

> <PUBCHEM_TOTAL_CHARGE>
0

> <PUBCHEM_HEAVY_ATOM_COUNT>
53

> <PUBCHEM_ATOM_DEF_STEREO_COUNT>
5

> <PUBCHEM_ATOM_UDEF_STEREO_COUNT>
0

> <PUBCHEM_BOND_DEF_STEREO_COUNT>
0

> <PUBCHEM_BOND_UDEF_STEREO_COUNT>
0

> <PUBCHEM_ISOTOPIC_ATOM_COUNT>
0

> <PUBCHEM_COMPONENT_COUNT>
1

> <PUBCHEM_CACTVS_TAUTO_COUNT>
-1

> <PUBCHEM_COORDINATE_TYPE>
1
5
255

> <PUBCHEM_BONDANNOTATIONS>
17  54  6
19  22  8
19  28  8
20  29  6
21  27  8
21  31  8
22  24  8
24  30  8
25  32  5
27  34  8
28  33  8
29  37  8
29  38  8
18  3  6
30  33  8
31  35  8
32  39  8
32  40  8
34  36  8
35  36  8
37  41  8
38  42  8
39  44  8
23  4  6
40  46  8
41  45  8
42  45  8
44  47  8
46  47  8
48  49  8
48  50  8
49  52  8
50  51  8
51  53  8
52  53  8

$$$$
78382153
  SciTegic09112316442D

 57 56  0  0  1  0            999 V2000
    6.3301    1.2500    0.0000 O   0  0
    7.1962   -1.2500    0.0000 O   0  0
    8.0622    1.2500    0.0000 O   0  0
   17.5885   -0.2500    0.0000 O   0  0
   16.7224    1.2500    0.0000 O   0  0
    6.3301    0.2500    0.0000 C   0  0
    5.4641   -0.2500    0.0000 C   0  0
    7.1962   -0.2500    0.0000 C   0  0
    4.5981    0.2500    0.0000 C   0  0
    8.0622    0.2500    0.0000 C   0  0
    3.7320   -0.2500    0.0000 C   0  0
   12.3923   -0.2500    0.0000 C   0  0
   13.2583    0.2500    0.0000 C   0  0
   11.5263    0.2500    0.0000 C   0  0
   14.1244   -0.2500    0.0000 C   0  0
   10.6603   -0.2500    0.0000 C   0  0
    8.9282   -0.2500    0.0000 C   0  0
    2.8660    0.2500    0.0000 C   0  0
    9.7942    0.2500    0.0000 C   0  0
   14.9904    0.2500    0.0000 C   0  0
   15.8564   -0.2500    0.0000 C   0  0
    2.0000   -0.2500    0.0000 C   0  0
   16.7224    0.2500    0.0000 C   0  0
    6.8671    0.5600    0.0000 H   0  0
    5.0656   -0.7249    0.0000 H   0  0
    5.8626   -0.7249    0.0000 H   0  0
    6.6592   -0.5600    0.0000 H   0  0
    4.9966    0.7249    0.0000 H   0  0
    4.1996    0.7249    0.0000 H   0  0
    7.5252    0.5600    0.0000 H   0  0
    3.3335   -0.7249    0.0000 H   0  0
    4.1306   -0.7249    0.0000 H   0  0
   11.9938   -0.7249    0.0000 H   0  0
   12.7908   -0.7249    0.0000 H   0  0
   13.6569    0.7249    0.0000 H   0  0
   12.8598    0.7249    0.0000 H   0  0
   11.9248    0.7249    0.0000 H   0  0
   11.1278    0.7249    0.0000 H   0  0
   13.7258   -0.7249    0.0000 H   0  0
   14.5229   -0.7249    0.0000 H   0  0
   10.2617   -0.7249    0.0000 H   0  0
   11.0588   -0.7249    0.0000 H   0  0
    8.9282   -0.8700    0.0000 H   0  0
    3.2646    0.7249    0.0000 H   0  0
    2.4675    0.7249    0.0000 H   0  0
    9.7942    0.8700    0.0000 H   0  0
   15.3889    0.7249    0.0000 H   0  0
   14.5919    0.7249    0.0000 H   0  0
    5.7932    1.5600    0.0000 H   0  0
    6.6592   -1.5600    0.0000 H   0  0
   15.4579   -0.7249    0.0000 H   0  0
   16.2549   -0.7249    0.0000 H   0  0
    1.6900    0.2869    0.0000 H   0  0
    1.4631   -0.5600    0.0000 H   0  0
    2.3100   -0.7869    0.0000 H   0  0
    8.5991    1.5600    0.0000 H   0  0
   18.1254    0.0600    0.0000 H   0  0
  1  6  1  0
  1 49  1  0
  2  8  1  0
  2 50  1  0
  3 10  1  0
  3 56  1  0
  4 23  1  0
  4 57  1  0
  5 23  2  0
  6  7  1  0
  6  8  1  0
  6 24  1  0
  7  9  1  0
  7 25  1  0
  7 26  1  0
  8 10  1  0
  8 27  1  0
  9 11  1  0
  9 28  1  0
  9 29  1  0
 10 17  1  0
 10 30  1  0
 11 18  1  0
 11 31  1  0
 11 32  1  0
 12 13  1  0
 12 14  1  0
 12 33  1  0
 12 34  1  0
 13 15  1  0
 13 35  1  0
 13 36  1  0
 14 16  1  0
 14 37  1  0
 14 38  1  0
 15 20  1  0
 15 39  1  0
 15 40  1  0
 16 19  1  0
 16 41  1  0
 16 42  1  0
 17 19  2  3
 17 43  1  0
 18 22  1  0
 18 44  1  0
 18 45  1  0
 19 46  1  0
 20 21  1  0
 20 47  1  0
 20 48  1  0
 21 23  1  0
 21 51  1  0
 21 52  1  0
 22 53  1  0
 22 54  1  0
 22 55  1  0
M  END
> <Name>
78382153

> <OBJECTID>
9223373136369745934

> <PUBCHEM_COMPOUND_CID>
78382153

> <PUBCHEM_COMPOUND_CANONICALIZED>
1

> <PUBCHEM_CACTVS_COMPLEXITY>
317

> <PUBCHEM_CACTVS_HBOND_ACCEPTOR>
5

> <PUBCHEM_CACTVS_HBOND_DONOR>
4

> <PUBCHEM_CACTVS_ROTATABLE_BOND>
15

> <PUBCHEM_CACTVS_SUBSKEYS>
AAADcfB4OAAAAAAAAAAAAAAAAAAAAAAAAAAAAAAAAAAAAAAAAAAAGgAACAAACBSggAICCAAAAgCIACDSCAAAAAAgAAAICAEAAAgBFBIAAQAAUAAFwAAJEAOIyKCAAAAAAAAAAAAAAAAAAAAAAAAAAAAAAA==

> <PUBCHEM_IUPAC_OPENEYE_NAME>
11,12,13-trihydroxyoctadec-9-enoic acid

> <PUBCHEM_IUPAC_CAS_NAME>
11,12,13-trihydroxy-9-octadecenoic acid

> <PUBCHEM_IUPAC_NAME_MARKUP>
11,12,13-trihydroxyoctadec-9-enoic acid

> <PUBCHEM_IUPAC_NAME>
11,12,13-trihydroxyoctadec-9-enoic acid

> <PUBCHEM_IUPAC_SYSTEMATIC_NAME>
11,12,13-tris(oxidanyl)octadec-9-enoic acid

> <PUBCHEM_IUPAC_TRADITIONAL_NAME>
11,12,13-trihydroxyoctadec-9-enoic acid

> <PUBCHEM_IUPAC_INCHI>
InChI=1S/C18H34O5/c1-2-3-9-12-15(19)18(23)16(20)13-10-7-5-4-6-8-11-14-17(21)22/h10,13,15-16,18-20,23H,2-9,11-12,14H2,1H3,(H,21,22)

> <PUBCHEM_IUPAC_INCHIKEY>
WWLVUQOGFYZQHT-UHFFFAOYSA-N

> <PUBCHEM_XLOGP3_AA>
3.5

> <PUBCHEM_EXACT_MASS>
330.24062418

> <PUBCHEM_MOLECULAR_FORMULA>
C18H34O5

> <PUBCHEM_MOLECULAR_WEIGHT>
330.5

> <PUBCHEM_OPENEYE_CAN_SMILES>
CCCCCC(C(C(C=CCCCCCCCC(=O)O)O)O)O

> <PUBCHEM_OPENEYE_ISO_SMILES>
CCCCCC(C(C(C=CCCCCCCCC(=O)O)O)O)O

> <PUBCHEM_CACTVS_TPSA>
98

> <PUBCHEM_MONOISOTOPIC_WEIGHT>
330.24062418

> <PUBCHEM_TOTAL_CHARGE>
0

> <PUBCHEM_HEAVY_ATOM_COUNT>
23

> <PUBCHEM_ATOM_DEF_STEREO_COUNT>
0

> <PUBCHEM_ATOM_UDEF_STEREO_COUNT>
3

> <PUBCHEM_BOND_DEF_STEREO_COUNT>
0

> <PUBCHEM_BOND_UDEF_STEREO_COUNT>
1

> <PUBCHEM_ISOTOPIC_ATOM_COUNT>
0

> <PUBCHEM_COMPONENT_COUNT>
1

> <PUBCHEM_CACTVS_TAUTO_COUNT>
-1

> <PUBCHEM_COORDINATE_TYPE>
1
5
255

> <PUBCHEM_BONDANNOTATIONS>
6  1  3
17  19  1
8  2  3
10  3  3

$$$$
92253768
  SciTegic09112316442D

 56 56  0  0  1  0            999 V2000
    3.6330    1.1739    0.0000 O   0  0
    2.4608    0.0861    0.0000 O   0  0
    5.3086   -1.9830    0.0000 O   0  0
    5.8031    1.0694    0.0000 O   0  0
    2.1385   -1.8784    0.0000 O   0  0
    5.0298   -0.2229    0.0000 C   0  0  1  0  0  0
    4.2208    0.3649    0.0000 C   0  0  2  0  0  0
    3.4118   -0.2229    0.0000 C   0  0
    4.7208   -1.1739    0.0000 C   0  0
    3.7208   -1.1739    0.0000 C   0  0
    5.9809    0.0861    0.0000 C   0  0
    4.8086    1.1739    0.0000 C   0  0
    3.1330   -1.9830    0.0000 C   0  0
    3.5398   -2.8965    0.0000 C   0  0  2  0  0  0
    4.4019    2.0875    0.0000 C   0  0
    6.7240   -0.5830    0.0000 C   0  0
    2.9520   -3.7055    0.0000 C   0  0
    4.5343   -3.0010    0.0000 C   0  0
    7.6751   -0.2740    0.0000 C   0  0
    4.9897    2.8965    0.0000 C   0  0
    3.3587   -4.6190    0.0000 C   0  0
    8.4182   -0.9431    0.0000 C   0  0
    7.8830    0.7042    0.0000 C   0  0
    4.5829    3.8100    0.0000 C   0  0
    5.1707    4.6190    0.0000 C   0  0
    3.5884    3.9146    0.0000 C   0  0
    5.4682   -0.6613    0.0000 H   0  0
    6.4695    0.4679    0.0000 H   0  0
    5.6898    0.6336    0.0000 H   0  0
    3.7920   -3.4629    0.0000 H   0  0
    3.0164    1.1091    0.0000 H   0  0
    3.9712    2.5335    0.0000 H   0  0
    3.8879    1.7408    0.0000 H   0  0
    6.5951   -1.1894    0.0000 H   0  0
    2.5213   -3.2595    0.0000 H   0  0
    2.4380   -4.0522    0.0000 H   0  0
    2.0000   -0.3287    0.0000 H   0  0
    4.4695   -3.6176    0.0000 H   0  0
    5.1509   -3.0658    0.0000 H   0  0
    4.5991   -2.3844    0.0000 H   0  0
    5.6063    2.8317    0.0000 H   0  0
    2.7923   -4.8712    0.0000 H   0  0
    3.6109   -5.1854    0.0000 H   0  0
    3.9251   -4.3669    0.0000 H   0  0
    8.0034   -1.4038    0.0000 H   0  0
    8.8790   -1.3580    0.0000 H   0  0
    8.8331   -0.4824    0.0000 H   0  0
    8.4895    0.5753    0.0000 H   0  0
    8.0119    1.3106    0.0000 H   0  0
    7.2766    0.8331    0.0000 H   0  0
    5.6723    4.2546    0.0000 H   0  0
    5.5351    5.1207    0.0000 H   0  0
    4.6691    4.9835    0.0000 H   0  0
    3.6532    4.5312    0.0000 H   0  0
    2.9718    3.9794    0.0000 H   0  0
    3.5236    3.2980    0.0000 H   0  0
  7  1  1  6
  1 31  1  0
  2  8  1  0
  2 37  1  0
  3  9  2  0
  4 12  2  0
  5 13  2  0
  6  7  1  0
  6  9  1  0
  6 11  1  6
  6 27  1  0
  7  8  1  0
  7 12  1  0
  8 10  2  0
  9 10  1  0
 10 13  1  0
 11 16  1  0
 11 28  1  0
 11 29  1  0
 12 15  1  0
 13 14  1  0
 14 17  1  0
 14 18  1  1
 14 30  1  0
 15 20  1  0
 15 32  1  0
 15 33  1  0
 16 19  2  0
 16 34  1  0
 17 21  1  0
 17 35  1  0
 17 36  1  0
 18 38  1  0
 18 39  1  0
 18 40  1  0
 19 22  1  0
 19 23  1  0
 20 24  2  0
 20 41  1  0
 21 42  1  0
 21 43  1  0
 21 44  1  0
 22 45  1  0
 22 46  1  0
 22 47  1  0
 23 48  1  0
 23 49  1  0
 23 50  1  0
 24 25  1  0
 24 26  1  0
 25 51  1  0
 25 52  1  0
 25 53  1  0
 26 54  1  0
 26 55  1  0
 26 56  1  0
M  END
> <Name>
92253768

> <OBJECTID>
9223373140664713230

> <PUBCHEM_COMPOUND_CID>
92253768

> <PUBCHEM_COMPOUND_CANONICALIZED>
1

> <PUBCHEM_CACTVS_COMPLEXITY>
687

> <PUBCHEM_CACTVS_HBOND_ACCEPTOR>
5

> <PUBCHEM_CACTVS_HBOND_DONOR>
2

> <PUBCHEM_CACTVS_ROTATABLE_BOND>
8

> <PUBCHEM_CACTVS_SUBSKEYS>
AAADceB4OAAAAAAAAAAAAAAAAAAAAQAAAAAAAAAAAAAAAAAAAAAAGgAACAAADUSAgAACAAAAAgCIAqBSAAIAAAAgIAAACAFAAEgBBBYIAQAAUAAEoAAJEQOLzODOgAAAAAAAAAAAAAAAAAAAAAAAAAAAAA==

> <PUBCHEM_IUPAC_OPENEYE_NAME>
(4R,5S)-3,4-dihydroxy-2-[(2S)-2-methylbutanoyl]-5-(3-methylbut-2-enyl)-4-(4-methylpent-3-enoyl)cyclopent-2-en-1-one

> <PUBCHEM_IUPAC_CAS_NAME>
(4R,5S)-3,4-dihydroxy-5-(3-methylbut-2-enyl)-2-[(2S)-2-methyl-1-oxobutyl]-4-(4-methyl-1-oxopent-3-enyl)-1-cyclopent-2-enone

> <PUBCHEM_IUPAC_NAME_MARKUP>
(4<I>R</I>,5<I>S</I>)-3,4-dihydroxy-2-[(2<I>S</I>)-2-methylbutanoyl]-5-(3-methylbut-2-enyl)-4-(4-methylpent-3-enoyl)cyclopent-2-en-1-one

> <PUBCHEM_IUPAC_NAME>
(4R,5S)-3,4-dihydroxy-2-[(2S)-2-methylbutanoyl]-5-(3-methylbut-2-enyl)-4-(4-methylpent-3-enoyl)cyclopent-2-en-1-one

> <PUBCHEM_IUPAC_SYSTEMATIC_NAME>
(4R,5S)-2-[(2S)-2-methylbutanoyl]-5-(3-methylbut-2-enyl)-4-(4-methylpent-3-enoyl)-3,4-bis(oxidanyl)cyclopent-2-en-1-one

> <PUBCHEM_IUPAC_TRADITIONAL_NAME>
(4R,5S)-3,4-dihydroxy-2-[(2S)-2-methylbutanoyl]-5-(3-methylbut-2-enyl)-4-(4-methylpent-3-enoyl)cyclopent-2-en-1-one

> <PUBCHEM_IUPAC_INCHI>
InChI=1S/C21H30O5/c1-7-14(6)18(23)17-19(24)15(10-8-12(2)3)21(26,20(17)25)16(22)11-9-13(4)5/h8-9,14-15,25-26H,7,10-11H2,1-6H3/t14-,15+,21-/m0/s1

> <PUBCHEM_IUPAC_INCHIKEY>
QHRQNLXYMFCGPB-ZSDSOXJFSA-N

> <PUBCHEM_XLOGP3_AA>
4

> <PUBCHEM_EXACT_MASS>
362.20932405

> <PUBCHEM_MOLECULAR_FORMULA>
C21H30O5

> <PUBCHEM_MOLECULAR_WEIGHT>
362.5

> <PUBCHEM_OPENEYE_CAN_SMILES>
CCC(C)C(=O)C1=C(C(C(C1=O)CC=C(C)C)(C(=O)CC=C(C)C)O)O

> <PUBCHEM_OPENEYE_ISO_SMILES>
CC[C@H](C)C(=O)C1=C([C@]([C@@H](C1=O)CC=C(C)C)(C(=O)CC=C(C)C)O)O

> <PUBCHEM_CACTVS_TPSA>
91.7

> <PUBCHEM_MONOISOTOPIC_WEIGHT>
362.20932405

> <PUBCHEM_TOTAL_CHARGE>
0

> <PUBCHEM_HEAVY_ATOM_COUNT>
26

> <PUBCHEM_ATOM_DEF_STEREO_COUNT>
3

> <PUBCHEM_ATOM_UDEF_STEREO_COUNT>
0

> <PUBCHEM_BOND_DEF_STEREO_COUNT>
0

> <PUBCHEM_BOND_UDEF_STEREO_COUNT>
0

> <PUBCHEM_ISOTOPIC_ATOM_COUNT>
0

> <PUBCHEM_COMPONENT_COUNT>
1

> <PUBCHEM_CACTVS_TAUTO_COUNT>
-1

> <PUBCHEM_COORDINATE_TYPE>
1
5
255

> <PUBCHEM_BONDANNOTATIONS>
7  1  6
14  18  5
6  11  6

$$$$
102416835
  SciTegic09112316442D

 24 25  0  0  0  0            999 V2000
    6.8100   -1.9734    0.0000 O   0  0
    4.2690    2.6144    0.0000 O   0  0
    2.5369    1.6144    0.0000 O   0  0
    6.0010   -0.3856    0.0000 C   0  0
    5.1350    0.1144    0.0000 C   0  0
    6.0010   -1.3856    0.0000 C   0  0
    5.1350    1.1144    0.0000 C   0  0
    4.2690   -0.3856    0.0000 C   0  0
    4.2690    1.6144    0.0000 C   0  0
    5.1920   -1.9734    0.0000 C   0  0
    3.4030    0.1144    0.0000 C   0  0
    3.4030    1.1144    0.0000 C   0  0
    5.5010   -2.9244    0.0000 C   0  0
    6.5010   -2.9244    0.0000 C   0  0
    6.6116   -0.4932    0.0000 H   0  0
    6.2131    0.1970    0.0000 H   0  0
    5.6720    1.4244    0.0000 H   0  0
    4.2690   -1.0056    0.0000 H   0  0
    4.6024   -1.7818    0.0000 H   0  0
    2.8660   -0.1956    0.0000 H   0  0
    5.1366   -3.4260    0.0000 H   0  0
    6.8655   -3.4260    0.0000 H   0  0
    4.8059    2.9244    0.0000 H   0  0
    2.0000    1.3044    0.0000 H   0  0
  1  6  1  0
  1 14  1  0
  2  9  1  0
  2 23  1  0
  3 12  1  0
  3 24  1  0
  4  5  1  0
  4  6  1  0
  4 15  1  0
  4 16  1  0
  5  7  2  0
  5  8  1  0
  6 10  2  0
  7  9  1  0
  7 17  1  0
  8 11  2  0
  8 18  1  0
  9 12  2  0
 10 13  1  0
 10 19  1  0
 11 12  1  0
 11 20  1  0
 13 14  2  0
 13 21  1  0
 14 22  1  0
M  END
> <Name>
102416835

> <OBJECTID>
9223373144959680526

> <PUBCHEM_COMPOUND_CID>
102416835

> <PUBCHEM_COMPOUND_CANONICALIZED>
1

> <PUBCHEM_CACTVS_COMPLEXITY>
183

> <PUBCHEM_CACTVS_HBOND_ACCEPTOR>
3

> <PUBCHEM_CACTVS_HBOND_DONOR>
2

> <PUBCHEM_CACTVS_ROTATABLE_BOND>
2

> <PUBCHEM_CACTVS_SUBSKEYS>
AAADccBwMAAAAAAAAAAAAAAAAAAAASAAAAAwAAAAAAAAAAABwAAAGgAACAAADASgmAIwBoAABkCIAqhSgAACCAAkIAAIiAEGiMgNJjKGNRqCeSGkwBEJuYeI7PzOIAABAAAAQABAAAIAAACAAAAAAAAAAA==

> <PUBCHEM_IUPAC_OPENEYE_NAME>
4-(2-furylmethyl)benzene-1,2-diol

> <PUBCHEM_IUPAC_CAS_NAME>
4-(2-furanylmethyl)benzene-1,2-diol

> <PUBCHEM_IUPAC_NAME_MARKUP>
4-(furan-2-ylmethyl)benzene-1,2-diol

> <PUBCHEM_IUPAC_NAME>
4-(furan-2-ylmethyl)benzene-1,2-diol

> <PUBCHEM_IUPAC_SYSTEMATIC_NAME>
4-(furan-2-ylmethyl)benzene-1,2-diol

> <PUBCHEM_IUPAC_TRADITIONAL_NAME>
4-(2-furfuryl)pyrocatechol

> <PUBCHEM_IUPAC_INCHI>
InChI=1S/C11H10O3/c12-10-4-3-8(7-11(10)13)6-9-2-1-5-14-9/h1-5,7,12-13H,6H2

> <PUBCHEM_IUPAC_INCHIKEY>
YTLNQLBYXROIRM-UHFFFAOYSA-N

> <PUBCHEM_XLOGP3_AA>
2.2

> <PUBCHEM_EXACT_MASS>
190.062994177

> <PUBCHEM_MOLECULAR_FORMULA>
C11H10O3

> <PUBCHEM_MOLECULAR_WEIGHT>
190.19

> <PUBCHEM_OPENEYE_CAN_SMILES>
C1=COC(=C1)CC2=CC(=C(C=C2)O)O

> <PUBCHEM_OPENEYE_ISO_SMILES>
C1=COC(=C1)CC2=CC(=C(C=C2)O)O

> <PUBCHEM_CACTVS_TPSA>
53.6

> <PUBCHEM_MONOISOTOPIC_WEIGHT>
190.062994177

> <PUBCHEM_TOTAL_CHARGE>
0

> <PUBCHEM_HEAVY_ATOM_COUNT>
14

> <PUBCHEM_ATOM_DEF_STEREO_COUNT>
0

> <PUBCHEM_ATOM_UDEF_STEREO_COUNT>
0

> <PUBCHEM_BOND_DEF_STEREO_COUNT>
0

> <PUBCHEM_BOND_UDEF_STEREO_COUNT>
0

> <PUBCHEM_ISOTOPIC_ATOM_COUNT>
0

> <PUBCHEM_COMPONENT_COUNT>
1

> <PUBCHEM_CACTVS_TAUTO_COUNT>
-1

> <PUBCHEM_COORDINATE_TYPE>
1
5
255

> <PUBCHEM_BONDANNOTATIONS>
1  14  8
1  6  8
10  13  8
11  12  8
13  14  8
5  7  8
5  8  8
6  10  8
7  9  8
8  11  8
9  12  8

$$$$
1065
  SciTegic09112316443D

 48 51  0  0  1  0            999 V2000
   -0.4127   -0.7919   -2.7418 O   0  0
    3.6722    2.6459    0.0325 O   0  0
   -2.6920    0.3886   -1.4762 N   0  0  1  0  0  0
    2.5640   -2.7327    0.6697 N   0  0
   -2.6846    1.1543    1.0076 C   0  0  2  0  0  0
   -1.6536   -0.3607   -0.7199 C   0  0  2  0  0  0
   -1.5751    0.1180    0.7466 C   0  0
   -4.0616    0.5687    0.6178 C   0  0  1  0  0  0
   -2.4090    2.3376    0.0634 C   0  0
   -4.0072    0.0924   -0.8538 C   0  0
   -2.4578    1.8473   -1.3915 C   0  0
   -0.2867   -0.3112   -1.4073 C   0  0  1  0  0  0
   -4.5083   -0.5213    1.5451 C   0  0
    0.7407   -1.1339   -0.6715 C   0  0
   -5.6162   -0.4615    2.2917 C   0  0
    1.9155   -0.5700   -0.1726 C   0  0
    0.4712   -2.4796   -0.5072 C   0  0
    2.8153   -1.4203    0.5037 C   0  0
    2.2096    0.7953   -0.3274 C   0  0
    1.4112   -3.2318    0.1675 C   0  0
    3.9896   -0.8655    1.0050 C   0  0
    3.3914    1.3237    0.1843 C   0  0
    4.2823    0.4919    0.8511 C   0  0
    4.9019    3.1167    0.5831 C   0  0
   -2.6676    1.4860    2.0518 H   0  0
   -1.9913   -1.4059   -0.7201 H   0  0
   -0.6124    0.5889    0.9763 H   0  0
   -1.6755   -0.7355    1.4266 H   0  0
   -4.7916    1.3899    0.6696 H   0  0
   -1.4247    2.7703    0.2794 H   0  0
   -3.1517    3.1290    0.2187 H   0  0
   -4.2244   -0.9798   -0.9485 H   0  0
   -4.7971    0.5924   -1.4301 H   0  0
   -3.2596    2.3724   -1.9271 H   0  0
   -1.5429    2.1335   -1.9212 H   0  0
    0.0100    0.7260   -1.5189 H   0  0
   -3.9063   -1.4246    1.6017 H   0  0
   -1.1134   -0.2759   -3.1762 H   0  0
   -5.8890   -1.2899    2.9364 H   0  0
   -6.2667    0.4058    2.2757 H   0  0
   -0.4200   -2.9573   -0.8964 H   0  0
    1.5615    1.5014   -0.8314 H   0  0
    1.2632   -4.2949    0.3263 H   0  0
    4.7032   -1.4970    1.5314 H   0  0
    5.2214    0.8291    1.2766 H   0  0
    4.9618    4.1891    0.3704 H   0  0
    5.7649    2.6457    0.1005 H   0  0
    4.9236    3.0047    1.6725 H   0  0
  1 12  1  0
  1 38  1  0
  2 22  1  0
  2 24  1  0
  3  6  1  0
  3 10  1  0
  3 11  1  0
  4 18  2  0
  4 20  1  0
  5  7  1  0
  5  8  1  0
  5  9  1  0
  5 25  1  0
  6  7  1  0
  6 12  1  0
  6 26  1  0
  7 27  1  0
  7 28  1  0
  8 10  1  0
  8 13  1  0
  8 29  1  0
  9 11  1  0
  9 30  1  0
  9 31  1  0
 10 32  1  0
 10 33  1  0
 11 34  1  0
 11 35  1  0
 12 14  1  0
 12 36  1  0
 13 15  2  0
 13 37  1  0
 14 16  2  0
 14 17  1  0
 15 39  1  0
 15 40  1  0
 16 18  1  0
 16 19  1  0
 17 20  2  0
 17 41  1  0
 18 21  1  0
 19 22  2  0
 19 42  1  0
 20 43  1  0
 21 23  2  0
 21 44  1  0
 22 23  1  0
 23 45  1  0
 24 46  1  0
 24 47  1  0
 24 48  1  0
M  END
> <Name>
1065

> <OBJECTID>
9223373149254647822

> <PUBCHEM_COMPOUND_CID>
1065

> <PUBCHEM_CONFORMER_RMSD>
0.8

> <PUBCHEM_CONFORMER_DIVERSEORDER>
6
28
30
26
14
24
15
11
23
17
8
10
13
29
19
22
31
16
20
2
4
7
9
5
25
12
27
21
18
3
1

> <PUBCHEM_MMFF94_PARTIAL_CHARGES>
29
1 -0.68
10 0.27
11 0.27
12 0.42
13 -0.29
14 -0.14
15 -0.3
17 -0.15
18 0.31
19 -0.15
2 -0.36
20 0.16
21 -0.15
22 0.08
23 -0.15
24 0.28
3 -0.81
37 0.15
38 0.4
39 0.15
4 -0.62
40 0.15
41 0.15
42 0.15
43 0.15
44 0.15
45 0.15
6 0.27
8 0.14

> <PUBCHEM_EFFECTIVE_ROTOR_COUNT>
5.2

> <PUBCHEM_PHARMACOPHORE_FEATURES>
9
1 1 acceptor
1 1 donor
1 15 hydrophobe
1 2 acceptor
1 3 cation
1 4 acceptor
6 16 18 19 21 22 23 rings
6 4 14 16 17 18 20 rings
8 3 5 6 7 8 9 10 11 rings

> <PUBCHEM_HEAVY_ATOM_COUNT>
24

> <PUBCHEM_ATOM_DEF_STEREO_COUNT>
0

> <PUBCHEM_ATOM_UDEF_STEREO_COUNT>
4

> <PUBCHEM_BOND_DEF_STEREO_COUNT>
0

> <PUBCHEM_BOND_UDEF_STEREO_COUNT>
0

> <PUBCHEM_ISOTOPIC_ATOM_COUNT>
0

> <PUBCHEM_COMPONENT_COUNT>
1

> <PUBCHEM_CACTVS_TAUTO_COUNT>
1

> <PUBCHEM_CONFORMER_ID>
42900000006

> <PUBCHEM_MMFF94_ENERGY>
87.6718

> <PUBCHEM_FEATURE_SELFOVERLAP>
45.702

> <PUBCHEM_SHAPE_FINGERPRINT>
10366900 7 18114476568985643786
10674148 151 17058957557701763584
11370993 70 18260823765829681867
11582403 64 15509621398732276126
11640471 11 17988629784085653892
12363563 72 15357707374659212895
12390115 104 18121785199650007668
12403814 3 18272084968785867377
12633257 1 17751635459966428992
12788726 201 17109046054469393252
128238 76 17986954240398641543
12892183 10 17894344479970831144
13004483 165 8502112737572854932
13224815 77 17489579022638647619
13583140 156 18191300486111662079
13828863 39 18200040679986975561
13944108 23 11452006674733352683
14178342 30 17024035848320824283
14223421 5 18261960630924765087
14289901 80 18340758239920825179
14341114 328 18131357431621747179
14787075 74 18126835217432321991
14955137 171 18194681467715127274
15475509 8 18130516224360513686
17349148 13 13984666945117447673
1813 80 17555455025262755990
20681677 76 18191016812048327349
20715895 44 17337305278218750105
20739085 24 18187361013770812292
21065199 12 18187646860380288017
21401589 2 18055909038234436712
21524375 3 18130217246537523110
21756936 100 18057042626327709568
21864079 5 17988082179787104609
23559900 14 18191583039030348371
2637199 183 17203618098489522684
283562 15 17399501812302409962
3459 83 8285662878687581803
3729539 64 11023291791973080421
38570 142 18199203939391905764
392239 28 18409731785325972771
469060 322 18045769350392183845
474 4 18340475729920065766
49207404 50 18334298651624622186
5081480 168 16699509450532347412
5104073 3 18187928331231161865
59755656 520 18269560601678294956
633830 44 18059861661949659188
7399639 24 18260550034726309465

> <PUBCHEM_SHAPE_MULTIPOLES>
472.21
10.1
3.03
1.7
2.69
0.08
-0.35
-4.27
5.89
-3.92
0.21
2.03
0.21
0.69

> <PUBCHEM_SHAPE_SELFOVERLAP>
1030.244

> <PUBCHEM_SHAPE_VOLUME>
252.2

> <PUBCHEM_COORDINATE_TYPE>
2
5
10

$$$$
1176
  SciTegic09112316443D

  8  7  0  0  0  0            999 V2000
   -1.3042   -0.0008    0.0001 O   0  0
    0.6903   -1.1479    0.0001 N   0  0
    0.6888    1.1489    0.0001 N   0  0
   -0.0749   -0.0001   -0.0003 C   0  0
    1.7041   -1.1111   -0.0002 H   0  0
    0.2605   -2.0669    0.0001 H   0  0
    0.2578    2.0672    0.0002 H   0  0
    1.7026    1.1134    0.0000 H   0  0
  1  4  2  0
  2  4  1  0
  2  5  1  0
  2  6  1  0
  3  4  1  0
  3  7  1  0
  3  8  1  0
M  END
> <Name>
1176

> <OBJECTID>
9223373153549615118

> <PUBCHEM_COMPOUND_CID>
1176

> <PUBCHEM_CONFORMER_RMSD>
0.4

> <PUBCHEM_CONFORMER_DIVERSEORDER>
1

> <PUBCHEM_MMFF94_PARTIAL_CHARGES>
8
1 -0.57
2 -0.8
3 -0.8
4 0.69
5 0.37
6 0.37
7 0.37
8 0.37

> <PUBCHEM_EFFECTIVE_ROTOR_COUNT>
0

> <PUBCHEM_PHARMACOPHORE_FEATURES>
3
1 1 acceptor
1 2 donor
1 3 donor

> <PUBCHEM_HEAVY_ATOM_COUNT>
4

> <PUBCHEM_ATOM_DEF_STEREO_COUNT>
0

> <PUBCHEM_ATOM_UDEF_STEREO_COUNT>
0

> <PUBCHEM_BOND_DEF_STEREO_COUNT>
0

> <PUBCHEM_BOND_UDEF_STEREO_COUNT>
0

> <PUBCHEM_ISOTOPIC_ATOM_COUNT>
0

> <PUBCHEM_COMPONENT_COUNT>
1

> <PUBCHEM_CACTVS_TAUTO_COUNT>
2

> <PUBCHEM_CONFORMER_ID>
49800000001

> <PUBCHEM_MMFF94_ENERGY>
4.7461

> <PUBCHEM_FEATURE_SELFOVERLAP>
15.275

> <PUBCHEM_SHAPE_FINGERPRINT>
139733 1 9294127255164527427
20096714 4 18195247955924807585
21015797 1 8790888471064714409
5943 1 14949611921259690529

> <PUBCHEM_SHAPE_MULTIPOLES>
66.49
1.16
1.14
0.54
0
0.35
0
-0.42
0
0
0
0
0
0

> <PUBCHEM_SHAPE_SELFOVERLAP>
115.786

> <PUBCHEM_SHAPE_VOLUME>
44.1

> <PUBCHEM_COORDINATE_TYPE>
2
5
10

$$$$
2153
  SciTegic09112316443D

 21 22  0  0  0  0            999 V2000
   -0.4586    2.7181    0.0003 O   0  0
   -2.4695   -1.5249   -0.0002 O   0  0
   -0.1456   -1.4090    0.0001 N   0  0
   -1.4928    0.6039   -0.0001 N   0  0
    2.1381    1.2470   -0.0001 N   0  0
    2.2775   -0.9780    0.0003 N   0  0
    0.9676   -0.5796   -0.0003 C   0  0
    0.8536    0.7838   -0.0007 C   0  0
   -0.3850    1.4926   -0.0005 C   0  0
   -1.4424   -0.8370   -0.0004 C   0  0
    0.0267   -2.8565    0.0002 C   0  0
   -2.8288    1.1905    0.0009 C   0  0
    2.9591    0.1491    0.0005 C   0  0
    2.4315    2.2150    0.0001 H   0  0
    0.5848   -3.1483   -0.8947 H   0  0
   -0.9352   -3.3753    0.0006 H   0  0
    0.5853   -3.1481    0.8950 H   0  0
   -2.8044    2.2826    0.0009 H   0  0
   -3.3655    0.8410    0.8886 H   0  0
   -3.3668    0.8410   -0.8862 H   0  0
    4.0359    0.2409    0.0010 H   0  0
  1  9  2  0
  2 10  2  0
  3  7  1  0
  3 10  1  0
  3 11  1  0
  4  9  1  0
  4 10  1  0
  4 12  1  0
  5  8  1  0
  5 13  1  0
  5 14  1  0
  6  7  1  0
  6 13  2  0
  7  8  2  0
  8  9  1  0
 11 15  1  0
 11 16  1  0
 11 17  1  0
 12 18  1  0
 12 19  1  0
 12 20  1  0
 13 21  1  0
M  END
> <Name>
2153

> <OBJECTID>
9223373157844582414

> <PUBCHEM_COMPOUND_CID>
2153

> <PUBCHEM_CONFORMER_RMSD>
0.4

> <PUBCHEM_CONFORMER_DIVERSEORDER>
1

> <PUBCHEM_MMFF94_PARTIAL_CHARGES>
15
1 -0.57
10 0.69
11 0.3
12 0.3
13 0.04
14 0.27
2 -0.57
21 0.15
3 -0.42
4 -0.42
5 0.03
6 -0.57
7 0.29
8 -0.24
9 0.71

> <PUBCHEM_EFFECTIVE_ROTOR_COUNT>
0

> <PUBCHEM_PHARMACOPHORE_FEATURES>
6
1 1 acceptor
1 2 acceptor
1 5 donor
3 5 6 13 cation
5 5 6 7 8 13 rings
6 3 4 7 8 9 10 rings

> <PUBCHEM_HEAVY_ATOM_COUNT>
13

> <PUBCHEM_ATOM_DEF_STEREO_COUNT>
0

> <PUBCHEM_ATOM_UDEF_STEREO_COUNT>
0

> <PUBCHEM_BOND_DEF_STEREO_COUNT>
0

> <PUBCHEM_BOND_UDEF_STEREO_COUNT>
0

> <PUBCHEM_ISOTOPIC_ATOM_COUNT>
0

> <PUBCHEM_COMPONENT_COUNT>
1

> <PUBCHEM_CACTVS_TAUTO_COUNT>
3

> <PUBCHEM_CONFORMER_ID>
86900000001

> <PUBCHEM_MMFF94_ENERGY>
19.6157

> <PUBCHEM_FEATURE_SELFOVERLAP>
30.561

> <PUBCHEM_SHAPE_FINGERPRINT>
10967382 1 18266458715508146407
11206711 2 18337388365482706191
13140716 1 18410855442974673353
13380535 76 18265609892758545043
16945 1 18194682562076654244
193761 8 17834395622774169607
20588541 1 18339083662036224325
21040471 1 18410575119307686368
22802520 49 18129681698333213990
2334 1 18338797921956457219
23402539 116 18199453523539890678
23463225 33 18335419036872571426
23552423 10 18260832613519911294
23559900 14 18343306947309073902
241688 4 18410854382128424057
2748010 2 18410857684958150983
5084963 1 18130509724835564474
528886 8 18411132515625768553
66348 1 18410572864170268163

> <PUBCHEM_SHAPE_MULTIPOLES>
235.87
3.57
2.67
0.57
0.2
0.72
0
-0.55
0
-0.6
0
0
0.01
0

> <PUBCHEM_SHAPE_SELFOVERLAP>
510.178

> <PUBCHEM_SHAPE_VOLUME>
130.4

> <PUBCHEM_COORDINATE_TYPE>
2
5
10

$$$$
