12719326
  SciTegic09112316452D

 26 26  0  0  0  0            999 V2000
    3.8912   -5.2578    0.0000 O   0  0
   -2.5981    1.5000    0.0000 O   0  0
    5.1959   -3.0115    0.0000 O   0  0
    1.2990   -0.7500    0.0000 C   0  0
    1.2990    0.7500    0.0000 C   0  0
    0.0000   -1.5000    0.0000 C   0  0
    2.5973   -1.5031    0.0000 C   0  0
    0.0000    1.5000    0.0000 C   0  0
   -1.2990   -0.7500    0.0000 C   0  0
   -1.2990    0.7500    0.0000 C   0  0
    5.1894   -6.0109    0.0000 C   0  0
    2.5951   -3.0039    0.0000 C   0  0
    3.8933   -3.7570    0.0000 C   0  0
    5.1873   -7.5117    0.0000 C   0  0
    2.5981    1.5000    0.0000 H   0  0
    0.0000   -3.0000    0.0000 H   0  0
    3.8976   -0.7553    0.0000 H   0  0
    0.0000    3.0000    0.0000 H   0  0
   -2.5981   -1.5000    0.0000 H   0  0
    6.4897   -5.2632    0.0000 H   0  0
    5.1922   -4.5109    0.0000 H   0  0
    1.2948   -3.7516    0.0000 H   0  0
    6.4848   -8.2644    0.0000 H   0  0
    5.1844   -9.0117    0.0000 H   0  0
    3.8869   -8.2595    0.0000 H   0  0
    6.4926   -3.7656    0.0000 H   0  0
  1 11  1  0
  1 13  1  0
  2 10  2  0
  3 13  1  0
  4  5  1  0
  4  6  1  0
  4  7  2  0
  5  8  2  0
  5 15  1  0
  6  9  2  0
  6 16  1  0
  7 12  1  0
  7 17  1  0
  8 10  1  0
  8 18  1  0
  9 10  1  0
  9 19  1  0
 11 14  1  0
 11 20  1  0
 11 21  1  0
 12 13  2  0
 12 22  1  0
 14 23  1  0
 14 24  1  0
 14 25  1  0
  3 26  1  0
M  END
> <Name>
12719326

> <OBJECTID>
9223372526484389902

> <PUBCHEM_COMPOUND_CID>
12719326

> <PUBCHEM_CONFORMER_RMSD>
0.6

> <PUBCHEM_CONFORMER_DIVERSEORDER>
1
12
20
4
17
11
23
18
19
21
2
24
14
3
7
22
13
5
6
8
15
16
10
9

> <PUBCHEM_MMFF94_PARTIAL_CHARGES>
20
1 -0.43
10 0.08
11 0.28
12 -0.14
13 0.71
15 0.15
16 0.15
17 0.15
18 0.15
19 0.15
2 -0.53
22 0.15
26 0.45
3 -0.57
4 0.03
5 -0.15
6 -0.15
7 -0.18
8 -0.15
9 -0.15

> <PUBCHEM_EFFECTIVE_ROTOR_COUNT>
4

> <PUBCHEM_PHARMACOPHORE_FEATURES>
3
1 2 donor
1 3 acceptor
6 4 5 6 8 9 10 rings

> <PUBCHEM_HEAVY_ATOM_COUNT>
14

> <PUBCHEM_ATOM_DEF_STEREO_COUNT>
0

> <PUBCHEM_ATOM_UDEF_STEREO_COUNT>
0

> <PUBCHEM_BOND_DEF_STEREO_COUNT>
1

> <PUBCHEM_BOND_UDEF_STEREO_COUNT>
0

> <PUBCHEM_ISOTOPIC_ATOM_COUNT>
0

> <PUBCHEM_COMPONENT_COUNT>
1

> <PUBCHEM_CACTVS_TAUTO_COUNT>
2

> <PUBCHEM_CONFORMER_ID>
00C214DE00000001

> <PUBCHEM_MMFF94_ENERGY>
35.4605

> <PUBCHEM_FEATURE_SELFOVERLAP>
15.223

> <PUBCHEM_SHAPE_FINGERPRINT>
10498660 4 18334006169211474829
10608611 8 18340485689611628192
11031198 65 18130790074673183910
11471102 20 18272651216688408206
11543360 7 16988268868044406973
122479 349 18334016128781418723
12251169 10 12035453852103017888
12346645 44 18335417950583319219
12654215 9 18272936029287257026
13764800 53 18186809097123735027
14123255 52 18335416855287790781
14252887 29 9799395737834509103
15219456 202 18339930415070999150
15775835 57 18259700107742429402
15848700 24 10519981552259062675
177051 138 9367344833980152661
17834072 14 9655574080845661539
17834072 32 18263647432059924300
18186145 218 18411134697543046999
20645477 70 17845941740317001070
20820808 20 18412825763696281866
21501502 16 18337941389730419314
22926399 65 18339081592009823720
231179 274 18334290929463366837
23402539 116 18340758325936092284
23402655 69 18060700584989923701
23500284 214 18261394476714725059
23557571 272 18267036135507315382
23559900 14 18342740724522215238
25 1 18342457032292632810
251288 83 11746944178333247016
276578 36 17603302631090980554
4047638 21 18408888421262987006
4990 188 17989208118680624815
633830 44 18270679758449527261
6442390 28 18261403264614114419
76465 3 10159712261030295740
81228 2 17753046386851869523

> <PUBCHEM_SHAPE_MULTIPOLES>
270.51
7.67
1.85
0.89
6.71
0.3
0.03
-5.11
-0.7
-0.32
0.16
-0.21
-0.03
0.27

> <PUBCHEM_SHAPE_SELFOVERLAP>
557.587

> <PUBCHEM_SHAPE_VOLUME>
155.5

> <PUBCHEM_COORDINATE_TYPE>
2
5
10

> <Ionization pH>
7.5

> <IonizationIndex>
1

> <NumberOfIonizations>
1

> <TautomerIndex>
2

> <NumberOfTautomers>
2

> <StereoisomerIndex>
1

> <NumberOfStereoisomers>
1

> <FailureReason>
Duplicate

> <Duplicate Name>
676946

$$$$
795
  SciTegic09112316452D

  9  9  0  0  0  0            999 V2000
    0.7500   -1.0323    0.0000 N   0  0
   -1.2135    0.3943    0.0000 N   0  0
    1.2135    0.3943    0.0000 C   0  0
   -0.7500   -1.0323    0.0000 C   0  0
    0.0000    1.2760    0.0000 C   0  0
    2.6401    0.8578    0.0000 H   0  0
   -1.6317   -2.2458    0.0000 H   0  0
    0.0000    2.7760    0.0000 H   0  0
    1.6317   -2.2458    0.0000 H   0  0
  1  3  1  0
  1  4  1  0
  2  4  2  0
  2  5  1  0
  3  5  2  0
  3  6  1  0
  4  7  1  0
  5  8  1  0
  1  9  1  0
M  END
> <Name>
795

> <OBJECTID>
9223372840017002510

> <PUBCHEM_COMPOUND_CID>
795

> <PUBCHEM_COMPOUND_CANONICALIZED>
1

> <PUBCHEM_CACTVS_COMPLEXITY>
28.1

> <PUBCHEM_CACTVS_HBOND_ACCEPTOR>
1

> <PUBCHEM_CACTVS_HBOND_DONOR>
1

> <PUBCHEM_CACTVS_ROTATABLE_BOND>
0

> <PUBCHEM_CACTVS_SUBSKEYS>
AAADcYBDAAAAAAAAAAAAAAAAAAAAAWAAAAAAAAAAAAAAAAABgAAAHAAQAAAAAADBAgQtkBbJkACgABAnZAAAgC2REqAJQYAYMACASAAACAAQAAAIEAIAACAAAAAAAAAAAAAAAAAAAAAAAAAAAAAAAAAAAA==

> <PUBCHEM_IUPAC_OPENEYE_NAME>
imidazole

> <PUBCHEM_IUPAC_CAS_NAME>
1H-imidazole

> <PUBCHEM_IUPAC_NAME_MARKUP>
1<I>H</I>-imidazole

> <PUBCHEM_IUPAC_NAME>
1H-imidazole

> <PUBCHEM_IUPAC_SYSTEMATIC_NAME>
1H-imidazole

> <PUBCHEM_IUPAC_TRADITIONAL_NAME>
glyoxaline

> <PUBCHEM_IUPAC_INCHI>
InChI=1S/C3H4N2/c1-2-5-3-4-1/h1-3H,(H,4,5)

> <PUBCHEM_IUPAC_INCHIKEY>
RAXXELZNTBOGNW-UHFFFAOYSA-N

> <PUBCHEM_XLOGP3>
-0.1

> <PUBCHEM_EXACT_MASS>
68.037448136

> <PUBCHEM_MOLECULAR_FORMULA>
C3H4N2

> <PUBCHEM_MOLECULAR_WEIGHT>
68.08

> <PUBCHEM_OPENEYE_CAN_SMILES>
C1=CN=CN1

> <PUBCHEM_OPENEYE_ISO_SMILES>
C1=CN=CN1

> <PUBCHEM_CACTVS_TPSA>
28.7

> <PUBCHEM_MONOISOTOPIC_WEIGHT>
68.037448136

> <PUBCHEM_TOTAL_CHARGE>
0

> <PUBCHEM_HEAVY_ATOM_COUNT>
5

> <PUBCHEM_ATOM_DEF_STEREO_COUNT>
0

> <PUBCHEM_ATOM_UDEF_STEREO_COUNT>
0

> <PUBCHEM_BOND_DEF_STEREO_COUNT>
0

> <PUBCHEM_BOND_UDEF_STEREO_COUNT>
0

> <PUBCHEM_ISOTOPIC_ATOM_COUNT>
0

> <PUBCHEM_COMPONENT_COUNT>
1

> <PUBCHEM_CACTVS_TAUTO_COUNT>
-1

> <PUBCHEM_COORDINATE_TYPE>
1
5
255

> <PUBCHEM_BONDANNOTATIONS>
1  3  8
1  4  8
2  4  8
2  5  8
3  5  8

> <Ionization pH>
7.09_D

> <IonizationIndex>
2

> <NumberOfIonizations>
2

> <TautomerIndex>
2

> <NumberOfTautomers>
2

> <StereoisomerIndex>
1

> <NumberOfStereoisomers>
1

> <FailureReason>
Duplicate

> <Duplicate Name>
795

$$$$
1048
  SciTegic09112316452D

  9  9  0  0  0  0            999 V2000
    0.7500   -1.0323    0.0000 N   0  0
    1.2135    0.3943    0.0000 N   0  0
   -0.7500   -1.0323    0.0000 C   0  0
   -1.2135    0.3943    0.0000 C   0  0
    0.0000    1.2760    0.0000 C   0  0
   -1.6317   -2.2458    0.0000 H   0  0
   -2.6401    0.8578    0.0000 H   0  0
    0.0000    2.7760    0.0000 H   0  0
    1.6317   -2.2458    0.0000 H   0  0
  1  2  1  0
  1  3  1  0
  2  5  2  0
  3  4  2  0
  3  6  1  0
  4  5  1  0
  4  7  1  0
  5  8  1  0
  1  9  1  0
M  END
> <Name>
1048

> <OBJECTID>
9223372844311969806

> <PUBCHEM_COMPOUND_CID>
1048

> <PUBCHEM_COMPOUND_CANONICALIZED>
1

> <PUBCHEM_CACTVS_COMPLEXITY>
28.1

> <PUBCHEM_CACTVS_HBOND_ACCEPTOR>
1

> <PUBCHEM_CACTVS_HBOND_DONOR>
1

> <PUBCHEM_CACTVS_ROTATABLE_BOND>
0

> <PUBCHEM_CACTVS_SUBSKEYS>
AAADcYBDAAAAAAAAAAAAAAAAAAAAAWAAAAAAAAAAAAAAAAABgAAAHAAYAAAACADBEgQ8gJBjAACiADBnQACQBAAAggAYMaAwZBAAAIAAQUAAhAAAGAAAAAAAAAAAAAAAAAAAAAAAAAAAAAAAAAAAAAAAAA==

> <PUBCHEM_IUPAC_OPENEYE_NAME>
1H-pyrazole

> <PUBCHEM_IUPAC_CAS_NAME>
1H-pyrazole

> <PUBCHEM_IUPAC_NAME_MARKUP>
1<I>H</I>-pyrazole

> <PUBCHEM_IUPAC_NAME>
1H-pyrazole

> <PUBCHEM_IUPAC_SYSTEMATIC_NAME>
1H-pyrazole

> <PUBCHEM_IUPAC_TRADITIONAL_NAME>
1H-pyrazole

> <PUBCHEM_IUPAC_INCHI>
InChI=1S/C3H4N2/c1-2-4-5-3-1/h1-3H,(H,4,5)

> <PUBCHEM_IUPAC_INCHIKEY>
WTKZEGDFNFYCGP-UHFFFAOYSA-N

> <PUBCHEM_XLOGP3>
0.3

> <PUBCHEM_EXACT_MASS>
68.037448136

> <PUBCHEM_MOLECULAR_FORMULA>
C3H4N2

> <PUBCHEM_MOLECULAR_WEIGHT>
68.08

> <PUBCHEM_OPENEYE_CAN_SMILES>
C1=CNN=C1

> <PUBCHEM_OPENEYE_ISO_SMILES>
C1=CNN=C1

> <PUBCHEM_CACTVS_TPSA>
28.7

> <PUBCHEM_MONOISOTOPIC_WEIGHT>
68.037448136

> <PUBCHEM_TOTAL_CHARGE>
0

> <PUBCHEM_HEAVY_ATOM_COUNT>
5

> <PUBCHEM_ATOM_DEF_STEREO_COUNT>
0

> <PUBCHEM_ATOM_UDEF_STEREO_COUNT>
0

> <PUBCHEM_BOND_DEF_STEREO_COUNT>
0

> <PUBCHEM_BOND_UDEF_STEREO_COUNT>
0

> <PUBCHEM_ISOTOPIC_ATOM_COUNT>
0

> <PUBCHEM_COMPONENT_COUNT>
1

> <PUBCHEM_CACTVS_TAUTO_COUNT>
1

> <PUBCHEM_COORDINATE_TYPE>
1
5
255

> <PUBCHEM_BONDANNOTATIONS>
1  2  8
1  3  8
2  5  8
3  4  8
4  5  8

> <Ionization pH>
7.5

> <IonizationIndex>
1

> <NumberOfIonizations>
1

> <TautomerIndex>
2

> <NumberOfTautomers>
2

> <StereoisomerIndex>
1

> <NumberOfStereoisomers>
1

> <FailureReason>
Duplicate

> <Duplicate Name>
1048

$$$$
6322
  SciTegic09112316452D

 26 25  0  0  1  0            999 V2000
   16.9060    2.2179    0.0000 O   0  5
   18.1960   -0.0370    0.0000 O   0  0
   15.5906   -1.5275    0.0000 N   0  3
   10.3968   -0.0053    0.0000 N   0  0
    7.7969    0.0054    0.0000 N   0  0
    9.1030    2.2508    0.0000 N   0  0
   14.2998    0.7286    0.0000 C   0  0
   12.9968   -0.0160    0.0000 C   0  0
   15.5967   -0.0267    0.0000 C   0  0  1  0  0  0
   11.6999    0.7393    0.0000 C   0  0
   16.8998    0.7179    0.0000 C   0  0
    9.0999    0.7500    0.0000 C   0  0
   15.6018    1.4735    0.0000 H   0  0
   14.3060    2.2286    0.0000 H   0  0
   13.8607   -0.5197    0.0000 H   0  0
   12.9906   -1.5160    0.0000 H   0  0
   14.7287   -0.5233    0.0000 H   0  0
   11.7061    2.2393    0.0000 H   0  0
   10.4041    1.4948    0.0000 H   0  0
   16.8860   -2.2836    0.0000 H   0  0
   15.5837   -3.0275    0.0000 H   0  0
   14.2882   -2.2717    0.0000 H   0  0
    6.5007    0.7603    0.0000 H   0  0
    7.7907   -1.4946    0.0000 H   0  0
   10.4031    2.9990    0.0000 H   0  0
   10.3907   -1.5053    0.0000 H   0  0
  1 11  1  0
  2 11  2  0
  9  3  1  0
  4 10  1  0
  4 12  1  0
  5 12  1  0
  6 12  2  0
  7  8  1  0
  7  9  1  0
  7 13  1  0
  7 14  1  0
  8 10  1  0
  8 15  1  0
  8 16  1  0
  9 11  1  0
  9 17  1  6
 10 18  1  0
 10 19  1  0
  3 20  1  0
  3 21  1  0
  3 22  1  0
  5 23  1  0
  5 24  1  0
  6 25  1  0
  4 26  1  0
M  CHG  2   1  -1   3   1
M  END
> <Name>
6322

> <OBJECTID>
9223372887261642766

> <PUBCHEM_COMPOUND_CID>
6322

> <PUBCHEM_COMPOUND_CANONICALIZED>
1

> <PUBCHEM_CACTVS_COMPLEXITY>
176

> <PUBCHEM_CACTVS_HBOND_ACCEPTOR>
4

> <PUBCHEM_CACTVS_HBOND_DONOR>
4

> <PUBCHEM_CACTVS_ROTATABLE_BOND>
5

> <PUBCHEM_CACTVS_SUBSKEYS>
AAADccBjsAAAAAAAAAAAAAAAAAAAAAAAAAAAAAAAAAAAAAAAAAAAHgAQCAAACCjBgAQBCAJAAgAoAACQLAAAAAEAAAAAAIGAAAACABIAgAAAQAAEEAAAAACYEQAAAAAAAAAAAAAAAAAAAAAAAAAAAAAAAA==

> <PUBCHEM_IUPAC_OPENEYE_NAME>
(2S)-2-amino-5-guanidino-pentanoic acid

> <PUBCHEM_IUPAC_CAS_NAME>
(2S)-2-amino-5-(diaminomethylideneamino)pentanoic acid

> <PUBCHEM_IUPAC_NAME_MARKUP>
(2<I>S</I>)-2-amino-5-(diaminomethylideneamino)pentanoic acid

> <PUBCHEM_IUPAC_NAME>
(2S)-2-amino-5-(diaminomethylideneamino)pentanoic acid

> <PUBCHEM_IUPAC_SYSTEMATIC_NAME>
(2S)-2-azanyl-5-[bis(azanyl)methylideneamino]pentanoic acid

> <PUBCHEM_IUPAC_TRADITIONAL_NAME>
(2S)-2-amino-5-guanidino-valeric acid

> <PUBCHEM_IUPAC_INCHI>
InChI=1S/C6H14N4O2/c7-4(5(11)12)2-1-3-10-6(8)9/h4H,1-3,7H2,(H,11,12)(H4,8,9,10)/t4-/m0/s1

> <PUBCHEM_IUPAC_INCHIKEY>
ODKSFYDXXFIFQN-BYPYZUCNSA-N

> <PUBCHEM_XLOGP3>
-4.2

> <PUBCHEM_EXACT_MASS>
174.1116757

> <PUBCHEM_MOLECULAR_FORMULA>
C6H14N4O2

> <PUBCHEM_MOLECULAR_WEIGHT>
174.2

> <PUBCHEM_OPENEYE_CAN_SMILES>
C(CC(C(=O)O)N)CN=C(N)N

> <PUBCHEM_OPENEYE_ISO_SMILES>
C(C[C@@H](C(=O)O)N)CN=C(N)N

> <PUBCHEM_CACTVS_TPSA>
128

> <PUBCHEM_MONOISOTOPIC_WEIGHT>
174.1116757

> <PUBCHEM_TOTAL_CHARGE>
0

> <PUBCHEM_HEAVY_ATOM_COUNT>
12

> <PUBCHEM_ATOM_DEF_STEREO_COUNT>
1

> <PUBCHEM_ATOM_UDEF_STEREO_COUNT>
0

> <PUBCHEM_BOND_DEF_STEREO_COUNT>
0

> <PUBCHEM_BOND_UDEF_STEREO_COUNT>
0

> <PUBCHEM_ISOTOPIC_ATOM_COUNT>
0

> <PUBCHEM_COMPONENT_COUNT>
1

> <PUBCHEM_CACTVS_TAUTO_COUNT>
6

> <PUBCHEM_COORDINATE_TYPE>
1
5
255

> <PUBCHEM_BONDANNOTATIONS>
9  3  6

> <Ionization pH>
7.03_DDP

> <IonizationIndex>
2

> <NumberOfIonizations>
2

> <TautomerIndex>
3

> <NumberOfTautomers>
3

> <StereoisomerIndex>
1

> <NumberOfStereoisomers>
1

> <FailureReason>
Duplicate

> <Duplicate Name>
6322

$$$$
153001
  SciTegic09112316452D

 56 55  0  0  1  0            999 V2000
   16.8999    2.2507    0.0000 O   0  0
   15.5999   -1.5007    0.0000 O   0  0
   11.6999    2.2507    0.0000 O   0  0
    1.3000    2.2500    0.0000 O   0  5
    0.0007    0.0004    0.0000 O   0  0
    9.0999    0.7500    0.0000 C   0  0
    7.7999    0.0000    0.0000 C   0  0
   16.8999    0.7500    0.0000 C   0  0  1  0  0  0
   10.3999    0.0000    0.0000 C   0  0
   18.1999    0.0000    0.0000 C   0  0
    6.5000    0.7500    0.0000 C   0  0
   19.4998    0.7500    0.0000 C   0  0
   15.5999    0.0000    0.0000 C   0  0  2  0  0  0
   11.6999    0.7500    0.0000 C   0  0  1  0  0  0
    5.2000    0.0000    0.0000 C   0  0
   20.7998    0.0000    0.0000 C   0  0
    3.9000    0.7500    0.0000 C   0  0
   14.2999    0.7500    0.0000 C   0  0
   12.9999    0.0000    0.0000 C   0  0
   22.0998    0.7500    0.0000 C   0  0
    2.6000    0.0000    0.0000 C   0  0
   23.3998    0.0000    0.0000 C   0  0
    1.3000    0.7500    0.0000 C   0  0
    9.0999    2.2500    0.0000 H   0  0
    7.8010    1.5002    0.0000 H   0  0
    7.7999   -1.5000    0.0000 H   0  0
    6.5010   -0.7502    0.0000 H   0  0
   15.6010    1.5002    0.0000 H   0  0
   16.9009   -0.7502    0.0000 H   0  0
   18.1999   -1.5000    0.0000 H   0  0
    9.1010   -0.7502    0.0000 H   0  0
   10.3999   -1.5000    0.0000 H   0  0
    5.2010    1.5002    0.0000 H   0  0
    6.5000    2.2500    0.0000 H   0  0
   18.2009    1.5002    0.0000 H   0  0
   19.4998    2.2500    0.0000 H   0  0
   14.3010   -0.7502    0.0000 H   0  0
   11.6999   -0.7500    0.0000 H   0  0
    3.9010   -0.7502    0.0000 H   0  0
    5.2000   -1.5000    0.0000 H   0  0
   19.5009   -0.7502    0.0000 H   0  0
   20.7998   -1.5000    0.0000 H   0  0
    2.6011    1.5002    0.0000 H   0  0
    3.9000    2.2500    0.0000 H   0  0
   14.2999    2.2500    0.0000 H   0  0
   12.9999   -1.5000    0.0000 H   0  0
   20.8009    1.5002    0.0000 H   0  0
   22.0998    2.2500    0.0000 H   0  0
    1.3011   -0.7502    0.0000 H   0  0
    2.6000   -1.5000    0.0000 H   0  0
   24.6991    0.7496    0.0000 H   0  0
   24.6987   -0.7502    0.0000 H   0  0
   23.3998   -1.5000    0.0000 H   0  0
   18.1984    3.0016    0.0000 H   0  0
   14.3013   -2.2516    0.0000 H   0  0
   12.9985    3.0016    0.0000 H   0  0
  1  8  1  0
  2 13  1  0
  3 14  1  0
  4 23  1  0
  5 23  2  0
  6  7  1  0
  6  9  1  0
  6 24  1  0
  6 25  1  0
  7 11  1  0
  7 26  1  0
  7 27  1  0
  8 10  1  0
  8 13  1  0
  8 28  1  6
  9 14  1  0
  9 31  1  0
  9 32  1  0
 10 12  1  0
 10 29  1  0
 10 30  1  0
 11 15  1  0
 11 33  1  0
 11 34  1  0
 12 16  1  0
 12 35  1  0
 12 36  1  0
 13 18  1  0
 13 37  1  6
 14 19  1  0
 14 38  1  1
 15 17  1  0
 15 39  1  0
 15 40  1  0
 16 20  1  0
 16 41  1  0
 16 42  1  0
 17 21  1  0
 17 43  1  0
 17 44  1  0
 18 19  2  0
 18 45  1  0
 19 46  1  0
 20 22  1  0
 20 47  1  0
 20 48  1  0
 21 23  1  0
 21 49  1  0
 21 50  1  0
 22 51  1  0
 22 52  1  0
 22 53  1  0
  1 54  1  0
  2 55  1  0
  3 56  1  0
M  CHG  1   4  -1
M  END
> <Name>
153001

> <OBJECTID>
9223372981750923278

> <PUBCHEM_COMPOUND_CID>
153001

> <PUBCHEM_COMPOUND_CANONICALIZED>
1

> <PUBCHEM_CACTVS_COMPLEXITY>
317

> <PUBCHEM_CACTVS_HBOND_ACCEPTOR>
5

> <PUBCHEM_CACTVS_HBOND_DONOR>
4

> <PUBCHEM_CACTVS_ROTATABLE_BOND>
15

> <PUBCHEM_CACTVS_SUBSKEYS>
AAADcfB4OAAAAAAAAAAAAAAAAAAAAAAAAAAAAAAAAAAAAAAAAAAAGgAACAAACBSggAICCAAAAgCIACDSCAAAAAAgAAAICAEAAAgBFBIAAQAAUAAEwAAJEAOIyKCAAAAAAAAAAAAAAAAAAAAAAAAAAAAAAA==

> <PUBCHEM_IUPAC_OPENEYE_NAME>
9,12,13-trihydroxyoctadec-10-enoic acid

> <PUBCHEM_IUPAC_CAS_NAME>
9,12,13-trihydroxy-10-octadecenoic acid

> <PUBCHEM_IUPAC_NAME_MARKUP>
9,12,13-trihydroxyoctadec-10-enoic acid

> <PUBCHEM_IUPAC_NAME>
9,12,13-trihydroxyoctadec-10-enoic acid

> <PUBCHEM_IUPAC_SYSTEMATIC_NAME>
9,12,13-tris(oxidanyl)octadec-10-enoic acid

> <PUBCHEM_IUPAC_TRADITIONAL_NAME>
9,12,13-trihydroxyoctadec-10-enoic acid

> <PUBCHEM_IUPAC_INCHI>
InChI=1S/C18H34O5/c1-2-3-7-11-16(20)17(21)14-13-15(19)10-8-5-4-6-9-12-18(22)23/h13-17,19-21H,2-12H2,1H3,(H,22,23)

> <PUBCHEM_IUPAC_INCHIKEY>
MDIUMSLCYIJBQC-UHFFFAOYSA-N

> <PUBCHEM_XLOGP3_AA>
3.1

> <PUBCHEM_EXACT_MASS>
330.24062418

> <PUBCHEM_MOLECULAR_FORMULA>
C18H34O5

> <PUBCHEM_MOLECULAR_WEIGHT>
330.5

> <PUBCHEM_OPENEYE_CAN_SMILES>
CCCCCC(C(C=CC(CCCCCCCC(=O)O)O)O)O

> <PUBCHEM_OPENEYE_ISO_SMILES>
CCCCCC(C(C=CC(CCCCCCCC(=O)O)O)O)O

> <PUBCHEM_CACTVS_TPSA>
98

> <PUBCHEM_MONOISOTOPIC_WEIGHT>
330.24062418

> <PUBCHEM_TOTAL_CHARGE>
0

> <PUBCHEM_HEAVY_ATOM_COUNT>
23

> <PUBCHEM_ATOM_DEF_STEREO_COUNT>
0

> <PUBCHEM_ATOM_UDEF_STEREO_COUNT>
3

> <PUBCHEM_BOND_DEF_STEREO_COUNT>
0

> <PUBCHEM_BOND_UDEF_STEREO_COUNT>
1

> <PUBCHEM_ISOTOPIC_ATOM_COUNT>
0

> <PUBCHEM_COMPONENT_COUNT>
1

> <PUBCHEM_CACTVS_TAUTO_COUNT>
1

> <PUBCHEM_COORDINATE_TYPE>
1
5
255

> <PUBCHEM_BONDANNOTATIONS>
8  1  3
18  19  1
13  2  3
14  3  3

> <Ionization pH>
7.5

> <IonizationIndex>
1

> <NumberOfIonizations>
1

> <TautomerIndex>
1

> <NumberOfTautomers>
1

> <StereoisomerIndex>
11

> <NumberOfStereoisomers>
16

> <FailureReason>
Duplicate

> <Duplicate Name>
9858729

$$$$
12343877
  SciTegic09112316452D

 23 23  0  0  0  0            999 V2000
   -2.5981    1.5000    0.0000 O   0  0
    3.8912   -5.2578    0.0000 O   0  0
    5.1959   -3.0115    0.0000 O   0  0
    1.2990   -0.7500    0.0000 C   0  0
    1.2990    0.7500    0.0000 C   0  0
    0.0000   -1.5000    0.0000 C   0  0
    0.0000    1.5000    0.0000 C   0  0
   -1.2990   -0.7500    0.0000 C   0  0
    2.5973   -1.5031    0.0000 C   0  0
   -1.2990    0.7500    0.0000 C   0  0
    2.5951   -3.0039    0.0000 C   0  0
    3.8933   -3.7570    0.0000 C   0  0
    5.1894   -6.0109    0.0000 C   0  0
    2.5981    1.5000    0.0000 H   0  0
    0.0000   -3.0000    0.0000 H   0  0
    3.8976   -0.7553    0.0000 H   0  0
    0.0000    3.0000    0.0000 H   0  0
   -2.5981   -1.5000    0.0000 H   0  0
    1.2948   -3.7516    0.0000 H   0  0
    5.1873   -7.5109    0.0000 H   0  0
    6.4873   -6.7630    0.0000 H   0  0
    6.4897   -5.2632    0.0000 H   0  0
    6.4926   -3.7656    0.0000 H   0  0
  1 10  2  0
  2 12  1  0
  2 13  1  0
  3 12  1  0
  4  5  1  0
  4  6  1  0
  4  9  2  0
  5  7  2  0
  5 14  1  0
  6  8  2  0
  6 15  1  0
  7 10  1  0
  7 17  1  0
  8 10  1  0
  8 18  1  0
  9 11  1  0
  9 16  1  0
 11 12  2  0
 11 19  1  0
 13 20  1  0
 13 21  1  0
 13 22  1  0
  3 23  1  0
M  END
> <Name>
12343877

> <OBJECTID>
9223373114894909454

> <PUBCHEM_COMPOUND_CID>
12343877

> <PUBCHEM_COMPOUND_CANONICALIZED>
1

> <PUBCHEM_CACTVS_COMPLEXITY>
190

> <PUBCHEM_CACTVS_HBOND_ACCEPTOR>
3

> <PUBCHEM_CACTVS_HBOND_DONOR>
1

> <PUBCHEM_CACTVS_ROTATABLE_BOND>
3

> <PUBCHEM_CACTVS_SUBSKEYS>
AAADccBwMAAAAAAAAAAAAAAAAAAAAAAAAAAwAAAAAAAAAAABAAAAGgAACAAADASAmAIyDoAABgCIAiDSCAACAAAgIAAIiAAGCMgIJiKCMRKAcAAkwBEIuYeAwAAOIAAAAAAAAABAAAAAAAAAAAAAAAAAAA==

> <PUBCHEM_IUPAC_OPENEYE_NAME>
methyl (Z)-3-(4-hydroxyphenyl)prop-2-enoate

> <PUBCHEM_IUPAC_CAS_NAME>
(Z)-3-(4-hydroxyphenyl)-2-propenoic acid methyl ester

> <PUBCHEM_IUPAC_NAME_MARKUP>
methyl (<I>Z</I>)-3-(4-hydroxyphenyl)prop-2-enoate

> <PUBCHEM_IUPAC_NAME>
methyl (Z)-3-(4-hydroxyphenyl)prop-2-enoate

> <PUBCHEM_IUPAC_SYSTEMATIC_NAME>
methyl (Z)-3-(4-hydroxyphenyl)prop-2-enoate

> <PUBCHEM_IUPAC_TRADITIONAL_NAME>
(Z)-3-(4-hydroxyphenyl)acrylic acid methyl ester

> <PUBCHEM_IUPAC_INCHI>
InChI=1S/C10H10O3/c1-13-10(12)7-4-8-2-5-9(11)6-3-8/h2-7,11H,1H3/b7-4-

> <PUBCHEM_IUPAC_INCHIKEY>
NITWSHWHQAQBAW-DAXSKMNVSA-N

> <PUBCHEM_XLOGP3>
2.3

> <PUBCHEM_EXACT_MASS>
178.062994177

> <PUBCHEM_MOLECULAR_FORMULA>
C10H10O3

> <PUBCHEM_MOLECULAR_WEIGHT>
178.18

> <PUBCHEM_OPENEYE_CAN_SMILES>
COC(=O)C=CC1=CC=C(C=C1)O

> <PUBCHEM_OPENEYE_ISO_SMILES>
COC(=O)/C=C\C1=CC=C(C=C1)O

> <PUBCHEM_CACTVS_TPSA>
46.5

> <PUBCHEM_MONOISOTOPIC_WEIGHT>
178.062994177

> <PUBCHEM_TOTAL_CHARGE>
0

> <PUBCHEM_HEAVY_ATOM_COUNT>
13

> <PUBCHEM_ATOM_DEF_STEREO_COUNT>
0

> <PUBCHEM_ATOM_UDEF_STEREO_COUNT>
0

> <PUBCHEM_BOND_DEF_STEREO_COUNT>
1

> <PUBCHEM_BOND_UDEF_STEREO_COUNT>
0

> <PUBCHEM_ISOTOPIC_ATOM_COUNT>
0

> <PUBCHEM_COMPONENT_COUNT>
1

> <PUBCHEM_CACTVS_TAUTO_COUNT>
-1

> <PUBCHEM_COORDINATE_TYPE>
1
5
255

> <PUBCHEM_BONDANNOTATIONS>
4  5  8
4  6  8
5  7  8
6  8  8
7  10  8
8  10  8

> <Ionization pH>
7.5

> <IonizationIndex>
1

> <NumberOfIonizations>
1

> <TautomerIndex>
2

> <NumberOfTautomers>
2

> <StereoisomerIndex>
1

> <NumberOfStereoisomers>
1

> <FailureReason>
Duplicate

> <Duplicate Name>
5319562

$$$$
